<?xml version="1.0" encoding="UTF-8"?>

<!-- generated on 2024-11-26 19:41:02.168887 by osmwebwizard.py v1_21_0+0000-d7b3b481c43
<configuration>
    <net-file value="C:\Users\ogach\Sumo\2024-11-26-18-56-57\osm.net.xml.gz"/>
    <output-trip-file value="C:\Users\ogach\Sumo\2024-11-26-18-56-57\osm.truck.trips.xml"/>
    <route-file value="C:\Users\ogach\Sumo\2024-11-26-18-56-57\osm.truck.rou.xml"/>
    <prefix value="truck"/>
    <trip-attributes value="departLane=&quot;best&quot;"/>
    <fringe-start-attributes value="departSpeed=&quot;max&quot;"/>
    <vehicle-class value="truck"/>
    <fringe-factor value="5"/>
    <vclass value="truck"/>
    <via-edge-types value="highway.motorway,highway.motorway_link,highway.trunk_link,highway.primary_link,highway.secondary_link,highway.tertiary_link"/>
    <min-distance value="600.0"/>
    <min-distance.fringe value="10.0"/>
    <remove-loops value="True"/>
    <validate value="True"/>
    <end value="7200.0"/>
    <insertion-density value="8.0"/>
</configuration>
-->

<!-- generated on 2024-11-26 19:39:24 by Eclipse SUMO duarouter Version 1.21.0
<duarouterConfiguration xmlns:xsi="http://www.w3.org/2001/XMLSchema-instance" xsi:noNamespaceSchemaLocation="http://sumo.dlr.de/xsd/duarouterConfiguration.xsd">

    <input>
        <net-file value="C:\Users\ogach\Sumo\2024-11-26-18-56-57\osm.net.xml.gz"/>
        <route-files value="C:\Users\ogach\Sumo\2024-11-26-18-56-57\osm.truck.trips.xml"/>
    </input>

    <output>
        <output-file value="C:\Users\ogach\Sumo\2024-11-26-18-56-57\osm.truck.trips.xml.tmp"/>
        <alternatives-output value="NUL"/>
        <write-trips value="true"/>
    </output>

    <processing>
        <remove-loops value="true"/>
    </processing>

    <time>
        <begin value="0.0"/>
        <end value="7200.0"/>
    </time>

    <report>
        <no-warnings value="true"/>
        <ignore-errors value="true"/>
        <no-step-log value="true"/>
    </report>

</duarouterConfiguration>
-->

<routes xmlns:xsi="http://www.w3.org/2001/XMLSchema-instance" xsi:noNamespaceSchemaLocation="http://sumo.dlr.de/xsd/routes_file.xsd">
    <vType id="truck_truck" vClass="truck"/>
    <trip id="truck1" type="truck_truck" depart="0.49" departLane="best" from="-28458627#3" to="27548004#6"/>
    <trip id="truck2" type="truck_truck" depart="0.97" departLane="best" from="27263104#2" to="24965011#16"/>
    <trip id="truck3" type="truck_truck" depart="1.46" departLane="best" from="-4550704#6" to="1250099586#1"/>
    <trip id="truck4" type="truck_truck" depart="1.95" departLane="best" from="-79384560#0" to="-11392800#3"/>
    <trip id="truck5" type="truck_truck" depart="2.44" departLane="best" from="26718060#5" to="1241372514#0"/>
    <trip id="truck6" type="truck_truck" depart="2.92" departLane="best" from="-1123862923#2" to="-26718057#4"/>
    <trip id="truck7" type="truck_truck" depart="3.41" departLane="best" from="17540513#0" to="145067950#0"/>
    <trip id="truck8" type="truck_truck" depart="3.90" departLane="best" departSpeed="max" from="-26721344#4" to="15461182#1"/>
    <trip id="truck9" type="truck_truck" depart="4.38" departLane="best" from="29287722#4" to="-10564074#1"/>
    <trip id="truck10" type="truck_truck" depart="4.87" departLane="best" from="292106222" to="26696448#8"/>
    <trip id="truck11" type="truck_truck" depart="5.36" departLane="best" departSpeed="max" from="-39378777#1" to="-22793367#1"/>
    <trip id="truck12" type="truck_truck" depart="5.85" departLane="best" from="734235806#6" to="-4624736#0"/>
    <trip id="truck13" type="truck_truck" depart="6.33" departLane="best" from="-14295674#0" to="144175134#14"/>
    <trip id="truck14" type="truck_truck" depart="6.82" departLane="best" departSpeed="max" from="35200889#0" to="-158806783#8"/>
    <trip id="truck15" type="truck_truck" depart="7.31" departLane="best" from="292380339#0" to="27547876#7"/>
    <trip id="truck16" type="truck_truck" depart="7.80" departLane="best" from="122462512#3" to="8119288#3"/>
    <trip id="truck17" type="truck_truck" depart="8.28" departLane="best" from="-4771178#6" to="144080601"/>
    <trip id="truck18" type="truck_truck" depart="8.77" departLane="best" from="-327554931#7" to="16680894#0"/>
    <trip id="truck19" type="truck_truck" depart="9.26" departLane="best" from="-401226809#0" to="15289421#2"/>
    <trip id="truck20" type="truck_truck" depart="9.74" departLane="best" from="26103359#7" to="11830418"/>
    <trip id="truck22" type="truck_truck" depart="10.72" departLane="best" from="-14033536#8" to="-28219581#3"/>
    <trip id="truck23" type="truck_truck" depart="11.21" departLane="best" from="-144175117#14" to="30189516#0"/>
    <trip id="truck24" type="truck_truck" depart="11.69" departLane="best" from="16590201#0" to="-551410207#5"/>
    <trip id="truck25" type="truck_truck" depart="12.18" departLane="best" from="4730735#5" to="-27017673#10"/>
    <trip id="truck26" type="truck_truck" depart="12.67" departLane="best" from="28458349#3" to="58819264"/>
    <trip id="truck27" type="truck_truck" depart="13.15" departLane="best" from="169770416#10" to="164760277#1"/>
    <trip id="truck28" type="truck_truck" depart="13.64" departLane="best" from="-228006263#0" to="27547852#1"/>
    <trip id="truck29" type="truck_truck" depart="14.13" departLane="best" departSpeed="max" from="-20586311#4" to="-67575480#3"/>
    <trip id="truck30" type="truck_truck" depart="14.62" departLane="best" from="-135167243#0" to="25674899#2"/>
    <trip id="truck31" type="truck_truck" depart="15.10" departLane="best" from="-27094578#1" to="-11414605#4"/>
    <trip id="truck32" type="truck_truck" depart="15.59" departLane="best" from="-32781216#3" to="-28613751"/>
    <trip id="truck33" type="truck_truck" depart="16.08" departLane="best" from="-26675668#20" to="61113706#1"/>
    <trip id="truck34" type="truck_truck" depart="16.57" departLane="best" from="4330717#9" to="-40814455#1"/>
    <trip id="truck35" type="truck_truck" depart="17.05" departLane="best" from="198690154#3" to="-81632488#2"/>
    <trip id="truck36" type="truck_truck" depart="17.54" departLane="best" from="48908153#1" to="112900577#0"/>
    <trip id="truck37" type="truck_truck" depart="18.03" departLane="best" from="-28412126#0" to="-28458607#45"/>
    <trip id="truck38" type="truck_truck" depart="18.51" departLane="best" from="13900253#3" to="28497957#27"/>
    <trip id="truck39" type="truck_truck" depart="19.00" departLane="best" from="144175097#6" to="4767571#0"/>
    <trip id="truck40" type="truck_truck" depart="19.49" departLane="best" from="55481095#0" to="-27473361#4"/>
    <trip id="truck41" type="truck_truck" depart="19.98" departLane="best" from="9862106#2" to="12542674#4"/>
    <trip id="truck42" type="truck_truck" depart="20.46" departLane="best" from="-14178547" to="-1193651044#2"/>
    <trip id="truck43" type="truck_truck" depart="20.95" departLane="best" from="-15082850#8" to="180806729#2"/>
    <trip id="truck44" type="truck_truck" depart="21.44" departLane="best" from="28498329#13" to="-10274143#25"/>
    <trip id="truck45" type="truck_truck" depart="21.92" departLane="best" from="-1256013583#2" to="72570246#3"/>
    <trip id="truck46" type="truck_truck" depart="22.41" departLane="best" from="973095754#1" to="13900313#3"/>
    <trip id="truck47" type="truck_truck" depart="22.90" departLane="best" from="8079716#5" to="4272146#5"/>
    <trip id="truck48" type="truck_truck" depart="23.39" departLane="best" from="-1081340232#0" to="27263198#4"/>
    <trip id="truck49" type="truck_truck" depart="23.87" departLane="best" from="24721987#1" to="14174950#3"/>
    <trip id="truck50" type="truck_truck" depart="24.36" departLane="best" from="28458349#10" to="209736232#1"/>
    <trip id="truck51" type="truck_truck" depart="24.85" departLane="best" departSpeed="max" from="-15281525#3" to="10817163#1"/>
    <trip id="truck52" type="truck_truck" depart="25.34" departLane="best" from="1023578551" to="73014080#0"/>
    <trip id="truck53" type="truck_truck" depart="25.82" departLane="best" from="-4330717#16" to="28498134#4"/>
    <trip id="truck54" type="truck_truck" depart="26.31" departLane="best" from="1142125063#2" to="-25051283#12"/>
    <trip id="truck55" type="truck_truck" depart="26.80" departLane="best" from="48818709#9" to="4330807#12"/>
    <trip id="truck56" type="truck_truck" depart="27.28" departLane="best" from="-290061467#0" to="20586311#3"/>
    <trip id="truck57" type="truck_truck" depart="27.77" departLane="best" from="-15290736#7" to="-223119491#1"/>
    <trip id="truck58" type="truck_truck" depart="28.26" departLane="best" from="28308517#23" to="14176261#2"/>
    <trip id="truck59" type="truck_truck" depart="28.75" departLane="best" from="-28459386#1" to="14032595#7"/>
    <trip id="truck60" type="truck_truck" depart="29.23" departLane="best" from="-1007388304#6" to="4350274#1"/>
    <trip id="truck61" type="truck_truck" depart="29.72" departLane="best" from="-10864382#0" to="-55260040"/>
    <trip id="truck62" type="truck_truck" depart="30.21" departLane="best" from="4330808#8" to="34254662#11"/>
    <trip id="truck63" type="truck_truck" depart="30.69" departLane="best" from="-306394887#8" to="-1247957765#10"/>
    <trip id="truck64" type="truck_truck" depart="31.18" departLane="best" from="4330808#18" to="665352223#4"/>
    <trip id="truck65" type="truck_truck" depart="31.67" departLane="best" from="-14175749#0" to="117041232#3"/>
    <trip id="truck66" type="truck_truck" depart="32.16" departLane="best" from="-133263668#2" to="28458428#7"/>
    <trip id="truck67" type="truck_truck" depart="32.64" departLane="best" from="28452873#0" to="-15829395#1"/>
    <trip id="truck68" type="truck_truck" depart="33.13" departLane="best" from="-1082200663#0" to="14334194#4"/>
    <trip id="truck69" type="truck_truck" depart="33.62" departLane="best" from="-28412129#2" to="4330810#3"/>
    <trip id="truck70" type="truck_truck" depart="34.11" departLane="best" from="80347061#6" to="-27213020#2"/>
    <trip id="truck71" type="truck_truck" depart="34.59" departLane="best" from="1241533751#1" to="27547876#8"/>
    <trip id="truck72" type="truck_truck" depart="35.08" departLane="best" from="25618382#7" to="-39407122#6"/>
    <trip id="truck73" type="truck_truck" depart="35.57" departLane="best" from="971635761#0" to="22718969#11"/>
    <trip id="truck74" type="truck_truck" depart="36.05" departLane="best" from="-1213420950#0" to="1313316941#1"/>
    <trip id="truck75" type="truck_truck" depart="36.54" departLane="best" departSpeed="max" from="-15289894#10" to="-27841841"/>
    <trip id="truck76" type="truck_truck" depart="37.03" departLane="best" from="-27141403#0" to="27547876#5"/>
    <trip id="truck77" type="truck_truck" depart="37.52" departLane="best" from="1337180164#3" to="-19801790#0"/>
    <trip id="truck78" type="truck_truck" depart="38.00" departLane="best" from="-27094503#1" to="4817820#1"/>
    <trip id="truck79" type="truck_truck" depart="38.49" departLane="best" from="-393243970#4" to="-13900135#2"/>
    <trip id="truck80" type="truck_truck" depart="38.98" departLane="best" departSpeed="max" from="-27276699" to="24759077#1"/>
    <trip id="truck81" type="truck_truck" depart="39.46" departLane="best" from="-5555122#0" to="15281948"/>
    <trip id="truck82" type="truck_truck" depart="39.95" departLane="best" from="-10817250#1" to="-28559898#7"/>
    <trip id="truck83" type="truck_truck" depart="40.44" departLane="best" from="27451194#2" to="-26675668#33"/>
    <trip id="truck84" type="truck_truck" depart="40.93" departLane="best" departSpeed="max" from="-14395865#1" to="10682355#5"/>
    <trip id="truck85" type="truck_truck" depart="41.41" departLane="best" from="-80513420#0" to="11414605#0"/>
    <trip id="truck86" type="truck_truck" depart="41.90" departLane="best" from="26833631#3" to="24759997#0"/>
    <trip id="truck87" type="truck_truck" depart="42.39" departLane="best" from="87329618" to="-145067910#3"/>
    <trip id="truck89" type="truck_truck" depart="43.36" departLane="best" from="400413916" to="-28458627#6"/>
    <trip id="truck90" type="truck_truck" depart="43.85" departLane="best" from="-24759994#0" to="1104072122#0"/>
    <trip id="truck91" type="truck_truck" depart="44.34" departLane="best" from="792730018" to="-302706310#2"/>
    <trip id="truck92" type="truck_truck" depart="44.82" departLane="best" from="-28131307#3" to="52292743#0"/>
    <trip id="truck93" type="truck_truck" depart="45.31" departLane="best" from="-971635768#8" to="-4273086#1"/>
    <trip id="truck94" type="truck_truck" depart="45.80" departLane="best" from="-1309873048#1" to="-1207994438#1"/>
    <trip id="truck95" type="truck_truck" depart="46.29" departLane="best" from="995312886" to="34597292"/>
    <trip id="truck97" type="truck_truck" depart="47.26" departLane="best" from="35201820#0" to="-24722390#12"/>
    <trip id="truck98" type="truck_truck" depart="47.75" departLane="best" from="1121229163#1" to="-27263100#1"/>
    <trip id="truck99" type="truck_truck" depart="48.23" departLane="best" from="-5555322" to="-1248037609#0"/>
    <trip id="truck100" type="truck_truck" depart="48.72" departLane="best" from="477249630#5" to="-89869128#1"/>
    <trip id="truck101" type="truck_truck" depart="49.21" departLane="best" departSpeed="max" from="-28412411#2" to="28550339#9"/>
    <trip id="truck102" type="truck_truck" depart="49.70" departLane="best" from="10274022#1" to="10274145#3"/>
    <trip id="truck103" type="truck_truck" depart="50.18" departLane="best" from="734235806#8" to="973095756#0"/>
    <trip id="truck104" type="truck_truck" depart="50.67" departLane="best" from="-134815693#6" to="27263072#6"/>
    <trip id="truck105" type="truck_truck" depart="51.16" departLane="best" from="169770398#2" to="34254662#3"/>
    <trip id="truck106" type="truck_truck" depart="51.65" departLane="best" from="806960343" to="15289929#4"/>
    <trip id="truck107" type="truck_truck" depart="52.13" departLane="best" from="83511940#0" to="28236026#2"/>
    <trip id="truck108" type="truck_truck" depart="52.62" departLane="best" departSpeed="max" from="1147542224" to="39407119#1"/>
    <trip id="truck109" type="truck_truck" depart="53.11" departLane="best" from="183355045#3" to="78734400#1"/>
    <trip id="truck110" type="truck_truck" depart="53.59" departLane="best" from="-14034431#3" to="-26370941#2"/>
    <trip id="truck111" type="truck_truck" depart="54.08" departLane="best" from="14680644#0" to="24760005#1"/>
    <trip id="truck112" type="truck_truck" depart="54.57" departLane="best" from="-27263272#2" to="-15544293#0"/>
    <trip id="truck113" type="truck_truck" depart="55.06" departLane="best" from="-4550469#6" to="-28458607#36"/>
    <trip id="truck114" type="truck_truck" depart="55.54" departLane="best" from="-14680556#10" to="16681127#0"/>
    <trip id="truck115" type="truck_truck" depart="56.03" departLane="best" departSpeed="max" from="-7356870#1" to="15291326#1"/>
    <trip id="truck117" type="truck_truck" depart="57.00" departLane="best" from="-256938373#1" to="27141419#0"/>
    <trip id="truck118" type="truck_truck" depart="57.49" departLane="best" from="27276943#0" to="-81733571#1"/>
    <trip id="truck119" type="truck_truck" depart="57.98" departLane="best" from="22661335#4" to="-349492868"/>
    <trip id="truck120" type="truck_truck" depart="58.47" departLane="best" from="-32947212#0" to="28311802#2"/>
    <trip id="truck121" type="truck_truck" depart="58.95" departLane="best" from="-13515103#16" to="112897116#0"/>
    <trip id="truck122" type="truck_truck" depart="59.44" departLane="best" from="9864166#8" to="977074550#3"/>
    <trip id="truck123" type="truck_truck" depart="59.93" departLane="best" from="-135185121#3" to="-27263072#2"/>
    <trip id="truck124" type="truck_truck" depart="60.42" departLane="best" departSpeed="max" from="-28412411#2" to="5555401#0"/>
    <trip id="truck125" type="truck_truck" depart="60.90" departLane="best" from="440630609" to="4495049#8"/>
    <trip id="truck126" type="truck_truck" depart="61.39" departLane="best" departSpeed="max" from="-4730729#2" to="23092795#6"/>
    <trip id="truck127" type="truck_truck" depart="61.88" departLane="best" from="-33097218#4" to="-26718057#5"/>
    <trip id="truck128" type="truck_truck" depart="62.36" departLane="best" from="15443042#3" to="91215268#2"/>
    <trip id="truck129" type="truck_truck" depart="62.85" departLane="best" from="191384999#2" to="10581219#3"/>
    <trip id="truck130" type="truck_truck" depart="63.34" departLane="best" from="306280118#1" to="-34597292"/>
    <trip id="truck131" type="truck_truck" depart="63.83" departLane="best" from="206698364#8" to="-59405268#6"/>
    <trip id="truck132" type="truck_truck" depart="64.31" departLane="best" from="15748056#0" to="-15443042#1"/>
    <trip id="truck133" type="truck_truck" depart="64.80" departLane="best" from="14680556#9" to="144175099#2"/>
    <trip id="truck134" type="truck_truck" depart="65.29" departLane="best" from="-28458607#2" to="14334150#1"/>
    <trip id="truck135" type="truck_truck" depart="65.77" departLane="best" departSpeed="max" from="26717861#0" to="26745153#1"/>
    <trip id="truck136" type="truck_truck" depart="66.26" departLane="best" from="165768722#1" to="28498202#13"/>
    <trip id="truck137" type="truck_truck" depart="66.75" departLane="best" from="-1125196663#1" to="4817593#1"/>
    <trip id="truck138" type="truck_truck" depart="67.24" departLane="best" from="35082145#2" to="-144175097#10"/>
    <trip id="truck139" type="truck_truck" depart="67.72" departLane="best" from="-80513420#0" to="-298295793#2"/>
    <trip id="truck140" type="truck_truck" depart="68.21" departLane="best" from="-10274143#1" to="28474849#3"/>
    <trip id="truck141" type="truck_truck" depart="68.70" departLane="best" from="25397699" to="-28483793#1"/>
    <trip id="truck142" type="truck_truck" depart="69.19" departLane="best" from="-27276745#0" to="144080600#2"/>
    <trip id="truck143" type="truck_truck" depart="69.67" departLane="best" from="8119297#2" to="-107919121#4"/>
    <trip id="truck144" type="truck_truck" depart="70.16" departLane="best" from="-13900135#11" to="-45480059#3"/>
    <trip id="truck145" type="truck_truck" depart="70.65" departLane="best" from="4769140#1" to="-14197785#2"/>
    <trip id="truck146" type="truck_truck" depart="71.13" departLane="best" from="33129446#0" to="15290736#1"/>
    <trip id="truck147" type="truck_truck" depart="71.62" departLane="best" from="-16678657#12" to="-15801462#4"/>
    <trip id="truck148" type="truck_truck" depart="72.11" departLane="best" departSpeed="max" from="-309979718#13" to="-4767611#8"/>
    <trip id="truck149" type="truck_truck" depart="72.60" departLane="best" from="-28584292#5" to="4272146#2"/>
    <trip id="truck150" type="truck_truck" depart="73.08" departLane="best" from="-4730744#4" to="27094503#0"/>
    <trip id="truck151" type="truck_truck" depart="73.57" departLane="best" from="-28130887#3" to="15082852#0"/>
    <trip id="truck152" type="truck_truck" depart="74.06" departLane="best" from="28474430#9" to="4550471#2"/>
    <trip id="truck153" type="truck_truck" depart="74.54" departLane="best" departSpeed="max" from="-598985649" to="-167369018#4"/>
    <trip id="truck154" type="truck_truck" depart="75.03" departLane="best" from="-169770396#6" to="552800117#1"/>
    <trip id="truck155" type="truck_truck" depart="75.52" departLane="best" from="-40814455#3" to="82012174#2"/>
    <trip id="truck156" type="truck_truck" depart="76.01" departLane="best" from="295347511#0" to="45421648#8"/>
    <trip id="truck157" type="truck_truck" depart="76.49" departLane="best" from="-1113337036" to="28100613#4"/>
    <trip id="truck158" type="truck_truck" depart="76.98" departLane="best" from="35537863#4" to="552928825#1"/>
    <trip id="truck159" type="truck_truck" depart="77.47" departLane="best" from="28907283#1" to="-4290498#7"/>
    <trip id="truck160" type="truck_truck" depart="77.96" departLane="best" from="295347511#0" to="-28559896#2"/>
    <trip id="truck161" type="truck_truck" depart="78.44" departLane="best" from="-28475350#7" to="-15288019#9"/>
    <trip id="truck162" type="truck_truck" depart="78.93" departLane="best" from="4303349#6" to="40814679"/>
    <trip id="truck163" type="truck_truck" depart="79.42" departLane="best" from="-26745134#1" to="323640094#1"/>
    <trip id="truck164" type="truck_truck" depart="79.90" departLane="best" from="103574800#1" to="-367556780#5"/>
    <trip id="truck165" type="truck_truck" depart="80.39" departLane="best" from="28559899#0" to="28131307#6"/>
    <trip id="truck167" type="truck_truck" depart="81.37" departLane="best" from="-34599808#2" to="-4303181#0"/>
    <trip id="truck168" type="truck_truck" depart="81.85" departLane="best" from="806863885" to="30390883#3"/>
    <trip id="truck169" type="truck_truck" depart="82.34" departLane="best" from="-16679805#13" to="838829099"/>
    <trip id="truck170" type="truck_truck" depart="82.83" departLane="best" from="-83569095#6" to="-141250627#2"/>
    <trip id="truck171" type="truck_truck" depart="83.31" departLane="best" from="58819261#2" to="153841737#9"/>
    <trip id="truck172" type="truck_truck" depart="83.80" departLane="best" from="8079714#2" to="-25051283#11"/>
    <trip id="truck173" type="truck_truck" depart="84.29" departLane="best" from="79384560#3" to="-28500091#2"/>
    <trip id="truck175" type="truck_truck" depart="85.26" departLane="best" from="26833619#0" to="40776498#5"/>
    <trip id="truck176" type="truck_truck" depart="85.75" departLane="best" from="-15289929#3" to="1270179880#1"/>
    <trip id="truck177" type="truck_truck" depart="86.24" departLane="best" departSpeed="max" from="-50029913#4" to="15289248#1"/>
    <trip id="truck178" type="truck_truck" depart="86.73" departLane="best" departSpeed="max" from="-28177698#3" to="26745823#2"/>
    <trip id="truck179" type="truck_truck" depart="87.21" departLane="best" from="-10274019#7" to="53856914#5"/>
    <trip id="truck180" type="truck_truck" depart="87.70" departLane="best" from="1241533747#1" to="27263115#1"/>
    <trip id="truck181" type="truck_truck" depart="88.19" departLane="best" from="27425894#0" to="24759370#18"/>
    <trip id="truck182" type="truck_truck" depart="88.67" departLane="best" from="-4550647#4" to="13857743"/>
    <trip id="truck183" type="truck_truck" depart="89.16" departLane="best" from="210820518#0" to="-454014561"/>
    <trip id="truck184" type="truck_truck" depart="89.65" departLane="best" from="-32602773#0" to="-38540374#1"/>
    <trip id="truck185" type="truck_truck" depart="90.14" departLane="best" from="-26718033#1" to="-35065608#0"/>
    <trip id="truck186" type="truck_truck" depart="90.62" departLane="best" from="313134650#4" to="-971635768#2"/>
    <trip id="truck187" type="truck_truck" depart="91.11" departLane="best" from="-5556557#1" to="-34254657#3"/>
    <trip id="truck188" type="truck_truck" depart="91.60" departLane="best" from="-15443042#0" to="10274024#7"/>
    <trip id="truck189" type="truck_truck" depart="92.08" departLane="best" from="589705750#1" to="25050851#10"/>
    <trip id="truck190" type="truck_truck" depart="92.57" departLane="best" from="-4767609#0" to="-16678657#1"/>
    <trip id="truck191" type="truck_truck" depart="93.06" departLane="best" from="-1007388304#3" to="-32602745#0"/>
    <trip id="truck192" type="truck_truck" depart="93.55" departLane="best" from="-82080248#0" to="15289952#6"/>
    <trip id="truck193" type="truck_truck" depart="94.03" departLane="best" from="194530356#3" to="11412271#2"/>
    <trip id="truck194" type="truck_truck" depart="94.52" departLane="best" from="-958168821#1" to="27263100#0"/>
    <trip id="truck195" type="truck_truck" depart="95.01" departLane="best" from="-1081732191#2" to="4770125"/>
    <trip id="truck196" type="truck_truck" depart="95.50" departLane="best" from="-28584292#3" to="-24759077#5"/>
    <trip id="truck197" type="truck_truck" depart="95.98" departLane="best" from="-14175132#1" to="1298041154"/>
    <trip id="truck198" type="truck_truck" depart="96.47" departLane="best" from="164681368#2" to="4550705#5"/>
    <trip id="truck199" type="truck_truck" depart="96.96" departLane="best" from="306394887#14" to="28308517#21"/>
    <trip id="truck200" type="truck_truck" depart="97.44" departLane="best" from="22817162#1" to="-27841841"/>
    <trip id="truck201" type="truck_truck" depart="97.93" departLane="best" from="-252217938#7" to="1125642346#2"/>
    <trip id="truck202" type="truck_truck" depart="98.42" departLane="best" from="-27547988#3" to="115649695#0"/>
    <trip id="truck203" type="truck_truck" depart="98.91" departLane="best" from="35317405#4" to="-14032436#2"/>
    <trip id="truck204" type="truck_truck" depart="99.39" departLane="best" from="-72113149" to="191095223#0"/>
    <trip id="truck205" type="truck_truck" depart="99.88" departLane="best" from="-24965011#1" to="26675669#6"/>
    <trip id="truck206" type="truck_truck" depart="100.37" departLane="best" from="1134756490" to="-28458518#3"/>
    <trip id="truck207" type="truck_truck" depart="100.85" departLane="best" from="199230905#1" to="-103704864#0"/>
    <trip id="truck208" type="truck_truck" depart="101.34" departLane="best" from="28100613#9" to="-28474430#9"/>
    <trip id="truck209" type="truck_truck" depart="101.83" departLane="best" from="-14680556#0" to="103574800#1"/>
    <trip id="truck210" type="truck_truck" depart="102.32" departLane="best" from="24481236#1" to="744383268#1"/>
    <trip id="truck211" type="truck_truck" depart="102.80" departLane="best" from="-116352995#3" to="120342742#1"/>
    <trip id="truck212" type="truck_truck" depart="103.29" departLane="best" from="-28100615#0" to="38876875#4"/>
    <trip id="truck213" type="truck_truck" depart="103.78" departLane="best" from="-10274025#0" to="296997214#2"/>
    <trip id="truck214" type="truck_truck" depart="104.27" departLane="best" departSpeed="max" from="22276862#0" to="91220521#0"/>
    <trip id="truck216" type="truck_truck" depart="105.24" departLane="best" from="4550704#12" to="166220917#2"/>
    <trip id="truck217" type="truck_truck" depart="105.73" departLane="best" from="26718006#3" to="1238114740"/>
    <trip id="truck218" type="truck_truck" depart="106.21" departLane="best" from="-32780624#4" to="-14334150#21"/>
    <trip id="truck219" type="truck_truck" depart="106.70" departLane="best" from="-4730728#3" to="28180096"/>
    <trip id="truck220" type="truck_truck" depart="107.19" departLane="best" from="1081874386#0" to="28475290#5"/>
    <trip id="truck221" type="truck_truck" depart="107.68" departLane="best" from="28037137" to="20547124#3"/>
    <trip id="truck222" type="truck_truck" depart="108.16" departLane="best" from="28452873#0" to="133668659#1"/>
    <trip id="truck223" type="truck_truck" depart="108.65" departLane="best" from="15806325#0" to="-29287722#6"/>
    <trip id="truck224" type="truck_truck" depart="109.14" departLane="best" departSpeed="max" from="-140301838" to="-320366360#5"/>
    <trip id="truck225" type="truck_truck" depart="109.62" departLane="best" from="-28458563#4" to="4303371#0"/>
    <trip id="truck226" type="truck_truck" depart="110.11" departLane="best" from="-1242592562#0" to="16681458#2"/>
    <trip id="truck227" type="truck_truck" depart="110.60" departLane="best" from="-27213020#6" to="26675660#9"/>
    <trip id="truck228" type="truck_truck" depart="111.09" departLane="best" from="-263932786#4" to="132426736#0"/>
    <trip id="truck229" type="truck_truck" depart="111.57" departLane="best" from="60451894#3" to="14178283#0"/>
    <trip id="truck230" type="truck_truck" depart="112.06" departLane="best" from="-72878563#1" to="26833631#9"/>
    <trip id="truck231" type="truck_truck" depart="112.55" departLane="best" from="77670858#1" to="-477339971#2"/>
    <trip id="truck232" type="truck_truck" depart="113.04" departLane="best" from="144175097#10" to="26675668#27"/>
    <trip id="truck233" type="truck_truck" depart="113.52" departLane="best" from="38876877#1" to="-28458627#3"/>
    <trip id="truck234" type="truck_truck" depart="114.01" departLane="best" from="-4835513#3" to="1039815024#0"/>
    <trip id="truck235" type="truck_truck" depart="114.50" departLane="best" from="4330720#8" to="28351888#1"/>
    <trip id="truck236" type="truck_truck" depart="114.98" departLane="best" from="37639387#2" to="72570321#1"/>
    <trip id="truck237" type="truck_truck" depart="115.47" departLane="best" from="-7356868#1" to="28236005#4"/>
    <trip id="truck238" type="truck_truck" depart="115.96" departLane="best" from="1276117605#6" to="158806783#1"/>
    <trip id="truck239" type="truck_truck" depart="116.45" departLane="best" from="-26745002#10" to="27544239#0"/>
    <trip id="truck240" type="truck_truck" depart="116.93" departLane="best" departSpeed="max" from="-909277314" to="-11392370#8"/>
    <trip id="truck241" type="truck_truck" depart="117.42" departLane="best" from="-38357717#14" to="25051125#14"/>
    <trip id="truck242" type="truck_truck" depart="117.91" departLane="best" from="-589705742" to="24722180#5"/>
    <trip id="truck243" type="truck_truck" depart="118.39" departLane="best" from="107296211#1" to="-158206666#2"/>
    <trip id="truck244" type="truck_truck" depart="118.88" departLane="best" from="15783594#3" to="-113039876#2"/>
    <trip id="truck246" type="truck_truck" depart="119.86" departLane="best" from="-1125196661" to="-218502342#1"/>
    <trip id="truck247" type="truck_truck" depart="120.34" departLane="best" from="-157783938#4" to="1136951376#3"/>
    <trip id="truck248" type="truck_truck" depart="120.83" departLane="best" from="-118478890#0" to="-67575479#5"/>