<?xml version="1.0" encoding="UTF-8"?>

<!-- generated on 2024-11-26 19:16:03.166398 by osmwebwizard.py v1_21_0+0000-d7b3b481c43
<configuration>
    <net-file value="C:\Users\ogach\Sumo\2024-11-26-18-56-57\osm.net.xml.gz"/>
    <output-trip-file value="C:\Users\ogach\Sumo\2024-11-26-18-56-57\osm.bicycle.trips.xml"/>
    <route-file value="C:\Users\ogach\Sumo\2024-11-26-18-56-57\osm.bicycle.rou.xml"/>
    <prefix value="bike"/>
    <trip-attributes value="departLane=&quot;best&quot;"/>
    <fringe-start-attributes value="departSpeed=&quot;max&quot;"/>
    <vehicle-class value="bicycle"/>
    <fringe-factor value="2"/>
    <vclass value="bicycle"/>
    <via-edge-types value="highway.motorway,highway.motorway_link,highway.trunk_link,highway.primary_link,highway.secondary_link,highway.tertiary_link"/>
    <max-distance value="8000.0"/>
    <remove-loops value="True"/>
    <validate value="True"/>
    <end value="7200.0"/>
    <insertion-density value="6.0"/>
</configuration>
-->

<!-- generated on 2024-11-26 19:07:31 by Eclipse SUMO duarouter Version 1.21.0
<duarouterConfiguration xmlns:xsi="http://www.w3.org/2001/XMLSchema-instance" xsi:noNamespaceSchemaLocation="http://sumo.dlr.de/xsd/duarouterConfiguration.xsd">

    <input>
        <net-file value="C:\Users\ogach\Sumo\2024-11-26-18-56-57\osm.net.xml.gz"/>
        <route-files value="C:\Users\ogach\Sumo\2024-11-26-18-56-57\osm.bicycle.trips.xml"/>
    </input>

    <output>
        <output-file value="C:\Users\ogach\Sumo\2024-11-26-18-56-57\osm.bicycle.trips.xml.tmp"/>
        <alternatives-output value="NUL"/>
        <write-trips value="true"/>
    </output>

    <processing>
        <remove-loops value="true"/>
    </processing>

    <time>
        <begin value="0.0"/>
        <end value="7200.0"/>
    </time>

    <report>
        <no-warnings value="true"/>
        <ignore-errors value="true"/>
        <no-step-log value="true"/>
    </report>

</duarouterConfiguration>
-->

<routes xmlns:xsi="http://www.w3.org/2001/XMLSchema-instance" xsi:noNamespaceSchemaLocation="http://sumo.dlr.de/xsd/routes_file.xsd">
    <vType id="bike_bicycle" vClass="bicycle"/>
    <trip id="bike0" type="bike_bicycle" depart="0.00" departLane="best" from="155516554#1" to="1093084040"/>
    <trip id="bike1" type="bike_bicycle" depart="0.29" departLane="best" departSpeed="max" from="-31874432#1" to="-26675668#34"/>
    <trip id="bike2" type="bike_bicycle" depart="0.57" departLane="best" from="28235996#2" to="-180800447#1"/>
    <trip id="bike3" type="bike_bicycle" depart="0.86" departLane="best" from="59405268#3" to="120324364#0"/>
    <trip id="bike4" type="bike_bicycle" depart="1.14" departLane="best" departSpeed="max" from="-90855007" to="-1109982917#3"/>
    <trip id="bike5" type="bike_bicycle" depart="1.43" departLane="best" from="-27141411#3" to="-10905263#12"/>
    <trip id="bike6" type="bike_bicycle" depart="1.71" departLane="best" departSpeed="max" from="-1092876095" to="-234353782#1"/>
    <trip id="bike7" type="bike_bicycle" depart="2.00" departLane="best" from="164334069#0" to="1157907751#1"/>
    <trip id="bike8" type="bike_bicycle" depart="2.29" departLane="best" from="-27263072#0" to="1273822431#1"/>
    <trip id="bike9" type="bike_bicycle" depart="2.57" departLane="best" departSpeed="max" from="352946918" to="1040169802#0"/>
    <trip id="bike10" type="bike_bicycle" depart="2.86" departLane="best" from="34930250#0" to="230893013#4"/>
    <trip id="bike11" type="bike_bicycle" depart="3.14" departLane="best" from="-4730728#4" to="-152085989#1"/>
    <trip id="bike12" type="bike_bicycle" depart="3.43" departLane="best" from="949705838#2" to="-4330808#24"/>
    <trip id="bike13" type="bike_bicycle" depart="3.72" departLane="best" from="-1289399921" to="-1242839841"/>
    <trip id="bike14" type="bike_bicycle" depart="4.00" departLane="best" departSpeed="max" from="350996669#0" to="-26675673#2"/>
    <trip id="bike15" type="bike_bicycle" depart="4.29" departLane="best" departSpeed="max" from="1180446597" to="90901793#1"/>
    <trip id="bike16" type="bike_bicycle" depart="4.57" departLane="best" from="-60451894#3" to="1163098720#1"/>
    <trip id="bike17" type="bike_bicycle" depart="4.86" departLane="best" from="398016003#2" to="14176935#1"/>
    <trip id="bike18" type="bike_bicycle" depart="5.14" departLane="best" from="477249630#4" to="122462500#1"/>
    <trip id="bike19" type="bike_bicycle" depart="5.43" departLane="best" from="255706769#2" to="-114937652#0"/>
    <trip id="bike20" type="bike_bicycle" depart="5.72" departLane="best" from="-28130846#1" to="31855248#1"/>
    <trip id="bike21" type="bike_bicycle" depart="6.00" departLane="best" departSpeed="max" from="1216124767" to="27094639"/>
    <trip id="bike22" type="bike_bicycle" depart="6.29" departLane="best" departSpeed="max" from="-1319464256#1" to="-293081246"/>
    <trip id="bike23" type="bike_bicycle" depart="6.57" departLane="best" from="15457211#1" to="5214630#1"/>
    <trip id="bike24" type="bike_bicycle" depart="6.86" departLane="best" departSpeed="max" from="-56010110" to="-24759365#1"/>
    <trip id="bike25" type="bike_bicycle" depart="7.15" departLane="best" departSpeed="max" from="159751231" to="13879908#2"/>
    <trip id="bike26" type="bike_bicycle" depart="7.43" departLane="best" from="20167442#21" to="26675669#2"/>
    <trip id="bike27" type="bike_bicycle" depart="7.72" departLane="best" departSpeed="max" from="-171692387" to="-589705733#6"/>
    <trip id="bike28" type="bike_bicycle" depart="8.00" departLane="best" from="-975107721" to="-15084470#10"/>
    <trip id="bike29" type="bike_bicycle" depart="8.29" departLane="best" departSpeed="max" from="1221115604" to="-20167442#23"/>
    <trip id="bike30" type="bike_bicycle" depart="8.57" departLane="best" from="-4350274#0" to="28498329#2"/>
    <trip id="bike31" type="bike_bicycle" depart="8.86" departLane="best" from="-28131360#5" to="-1118861927#0"/>
    <trip id="bike32" type="bike_bicycle" depart="9.15" departLane="best" from="-396561460#18" to="-286154816#0"/>
    <trip id="bike33" type="bike_bicycle" depart="9.43" departLane="best" from="-26717431#4" to="77670869#3"/>
    <trip id="bike34" type="bike_bicycle" depart="9.72" departLane="best" from="1270179880#2" to="-36915901#7"/>
    <trip id="bike35" type="bike_bicycle" depart="10.00" departLane="best" departSpeed="max" from="16679992" to="-72570248#1"/>
    <trip id="bike36" type="bike_bicycle" depart="10.29" departLane="best" from="762709831#0" to="-959829916"/>
    <trip id="bike37" type="bike_bicycle" depart="10.57" departLane="best" from="1234739003#5" to="28475290#1"/>
    <trip id="bike38" type="bike_bicycle" depart="10.86" departLane="best" departSpeed="max" from="1327808694" to="520804702#2"/>
    <trip id="bike39" type="bike_bicycle" depart="11.15" departLane="best" from="-79092082#0" to="-257592206#4"/>
    <trip id="bike40" type="bike_bicycle" depart="11.43" departLane="best" from="9862439#5" to="1092871896#0"/>
    <trip id="bike41" type="bike_bicycle" depart="11.72" departLane="best" from="-1275790700#0" to="-1153650751"/>
    <trip id="bike42" type="bike_bicycle" depart="12.00" departLane="best" departSpeed="max" from="-140295438" to="144175115#1"/>
    <trip id="bike43" type="bike_bicycle" depart="12.29" departLane="best" from="-32780553#2" to="-88066827#3"/>
    <trip id="bike44" type="bike_bicycle" depart="12.58" departLane="best" from="-117041232#5" to="-598280422"/>
    <trip id="bike45" type="bike_bicycle" depart="12.86" departLane="best" from="98438218" to="1132943001#1"/>
    <trip id="bike46" type="bike_bicycle" depart="13.15" departLane="best" departSpeed="max" from="957217694" to="4275969#2"/>
    <trip id="bike47" type="bike_bicycle" depart="13.43" departLane="best" departSpeed="max" from="-1065493960" to="25653374#5"/>
    <trip id="bike48" type="bike_bicycle" depart="13.72" departLane="best" from="22718969#6" to="1149155444"/>
    <trip id="bike49" type="bike_bicycle" depart="14.00" departLane="best" from="302706310#0" to="-151621190#1"/>
    <trip id="bike50" type="bike_bicycle" depart="14.29" departLane="best" from="-14034604#18" to="946146456#2"/>
    <trip id="bike52" type="bike_bicycle" depart="14.86" departLane="best" from="52291872#4" to="28475400#7"/>
    <trip id="bike53" type="bike_bicycle" depart="15.15" departLane="best" from="-11414605#0" to="167658850#0"/>
    <trip id="bike54" type="bike_bicycle" depart="15.43" departLane="best" from="-737471585#2" to="44953417#3"/>
    <trip id="bike55" type="bike_bicycle" depart="15.72" departLane="best" from="-92482040#11" to="-149279892#2"/>
    <trip id="bike56" type="bike_bicycle" depart="16.01" departLane="best" from="14396245#1" to="-15082850#10"/>
    <trip id="bike57" type="bike_bicycle" depart="16.29" departLane="best" departSpeed="max" from="286962110" to="1153650741#0"/>
    <trip id="bike58" type="bike_bicycle" depart="16.58" departLane="best" from="303956553#3" to="1135977502#1"/>
    <trip id="bike59" type="bike_bicycle" depart="16.86" departLane="best" from="-1007388304#6" to="-39405544#2"/>
    <trip id="bike60" type="bike_bicycle" depart="17.15" departLane="best" from="-1082200681" to="641711423#1"/>
    <trip id="bike61" type="bike_bicycle" depart="17.43" departLane="best" from="-533703483" to="364387402"/>
    <trip id="bike62" type="bike_bicycle" depart="17.72" departLane="best" from="-38357717#10" to="-1165150002"/>
    <trip id="bike63" type="bike_bicycle" depart="18.01" departLane="best" from="53284423#3" to="80240654#1"/>
    <trip id="bike64" type="bike_bicycle" depart="18.29" departLane="best" from="1241533753#1" to="1030929336#1"/>
    <trip id="bike65" type="bike_bicycle" depart="18.58" departLane="best" from="-1194705405#0" to="28351888#3"/>
    <trip id="bike66" type="bike_bicycle" depart="18.86" departLane="best" from="288229934#1" to="-141253527#0"/>
    <trip id="bike67" type="bike_bicycle" depart="19.15" departLane="best" from="-10905261#9" to="116260388#0"/>
    <trip id="bike68" type="bike_bicycle" depart="19.43" departLane="best" from="-298295793#1" to="45421660#5"/>
    <trip id="bike69" type="bike_bicycle" depart="19.72" departLane="best" from="-91216838#0" to="-439592168#15"/>
    <trip id="bike70" type="bike_bicycle" depart="20.01" departLane="best" departSpeed="max" from="1183378685" to="26676160#1"/>
    <trip id="bike71" type="bike_bicycle" depart="20.29" departLane="best" from="25652950#0" to="-364455369#0"/>
    <trip id="bike72" type="bike_bicycle" depart="20.58" departLane="best" from="982175096#1" to="15530030#1"/>
    <trip id="bike73" type="bike_bicycle" depart="20.86" departLane="best" from="143073474#3" to="-26706012#1"/>
    <trip id="bike74" type="bike_bicycle" depart="21.15" departLane="best" departSpeed="max" from="-461005502#2" to="1270674783#3"/>
    <trip id="bike75" type="bike_bicycle" depart="21.44" departLane="best" from="-28146200#2" to="-26278606#0"/>
    <trip id="bike77" type="bike_bicycle" depart="22.01" departLane="best" from="-28131360#0" to="54583441"/>
    <trip id="bike78" type="bike_bicycle" depart="22.29" departLane="best" from="4770112#0" to="-1168150726"/>
    <trip id="bike79" type="bike_bicycle" depart="22.58" departLane="best" departSpeed="max" from="-28337312#1" to="16679602#4"/>
    <trip id="bike80" type="bike_bicycle" depart="22.86" departLane="best" from="26745002#6" to="-14194979#2"/>
    <trip id="bike81" type="bike_bicycle" depart="23.15" departLane="best" from="-833678874#6" to="1207408080#1"/>
    <trip id="bike82" type="bike_bicycle" depart="23.44" departLane="best" from="1085419754#1" to="290579167"/>
    <trip id="bike83" type="bike_bicycle" depart="23.72" departLane="best" from="350996689#5" to="-206698368#3"/>
    <trip id="bike84" type="bike_bicycle" depart="24.01" departLane="best" from="1298041171" to="-9404193#0"/>
    <trip id="bike85" type="bike_bicycle" depart="24.29" departLane="best" departSpeed="max" from="-92057003" to="-973027216"/>
    <trip id="bike86" type="bike_bicycle" depart="24.58" departLane="best" from="27547947#5" to="169828905#1"/>
    <trip id="bike87" type="bike_bicycle" depart="24.87" departLane="best" departSpeed="max" from="963349656" to="1252915165#1"/>
    <trip id="bike88" type="bike_bicycle" depart="25.15" departLane="best" from="-28236005#6" to="-439593310#1"/>
    <trip id="bike89" type="bike_bicycle" depart="25.44" departLane="best" from="477249630#0" to="282965170#9"/>
    <trip id="bike90" type="bike_bicycle" depart="25.72" departLane="best" from="-24722082#1" to="-957217635"/>
    <trip id="bike91" type="bike_bicycle" depart="26.01" departLane="best" departSpeed="max" from="-90854921#1" to="-293557767"/>
    <trip id="bike92" type="bike_bicycle" depart="26.29" departLane="best" from="-28475161#1" to="611774507#4"/>
    <trip id="bike93" type="bike_bicycle" depart="26.58" departLane="best" departSpeed="max" from="-978837517#1" to="4290497#1"/>
    <trip id="bike94" type="bike_bicycle" depart="26.87" departLane="best" departSpeed="max" from="1201567267#0" to="1158250464#1"/>
    <trip id="bike95" type="bike_bicycle" depart="27.15" departLane="best" from="998156017#1" to="-36915901#14"/>
    <trip id="bike96" type="bike_bicycle" depart="27.44" departLane="best" from="-957217615#9" to="618785659#2"/>
    <trip id="bike97" type="bike_bicycle" depart="27.72" departLane="best" from="-45074295#3" to="157783938#8"/>
    <trip id="bike98" type="bike_bicycle" depart="28.01" departLane="best" from="1118182663#2" to="-25173001#4"/>
    <trip id="bike99" type="bike_bicycle" depart="28.29" departLane="best" from="-80240682#1" to="-1165241703"/>
    <trip id="bike100" type="bike_bicycle" depart="28.58" departLane="best" from="-60674018" to="-954692918"/>
    <trip id="bike101" type="bike_bicycle" depart="28.87" departLane="best" departSpeed="max" from="-300051851" to="-290061467#1"/>
    <trip id="bike102" type="bike_bicycle" depart="29.15" departLane="best" from="102977550#0" to="-890498998"/>
    <trip id="bike103" type="bike_bicycle" depart="29.44" departLane="best" from="-951715333#4" to="-982175088#1"/>
    <trip id="bike105" type="bike_bicycle" depart="30.01" departLane="best" from="-159592213#2" to="-33095677#8"/>
    <trip id="bike106" type="bike_bicycle" depart="30.30" departLane="best" from="-957217615#23" to="1227769461#2"/>
    <trip id="bike107" type="bike_bicycle" depart="30.58" departLane="best" from="1194658333#1" to="-28037137"/>
    <trip id="bike108" type="bike_bicycle" depart="30.87" departLane="best" from="953958758" to="1246055539#1"/>
    <trip id="bike109" type="bike_bicycle" depart="31.15" departLane="best" from="1147860276" to="40776513#1"/>
    <trip id="bike110" type="bike_bicycle" depart="31.44" departLane="best" from="-165768722#1" to="82489438#1"/>
    <trip id="bike111" type="bike_bicycle" depart="31.72" departLane="best" departSpeed="max" from="-1217267457#1" to="-191095236#0"/>
    <trip id="bike112" type="bike_bicycle" depart="32.01" departLane="best" from="-14034604#21" to="1125642346#5"/>
    <trip id="bike113" type="bike_bicycle" depart="32.30" departLane="best" departSpeed="max" from="-282614222#1" to="-136072134#5"/>
    <trip id="bike114" type="bike_bicycle" depart="32.58" departLane="best" departSpeed="max" from="58725767#0" to="-28252343#0"/>
    <trip id="bike115" type="bike_bicycle" depart="32.87" departLane="best" from="14034431#1" to="14178332#4"/>
    <trip id="bike116" type="bike_bicycle" depart="33.15" departLane="best" departSpeed="max" from="-887519369" to="-1243128473#5"/>
    <trip id="bike117" type="bike_bicycle" depart="33.44" departLane="best" departSpeed="max" from="1165277265" to="705232831#14"/>
    <trip id="bike118" type="bike_bicycle" depart="33.73" departLane="best" from="-257592206#20" to="25051125#14"/>
    <trip id="bike119" type="bike_bicycle" depart="34.01" departLane="best" from="283592952#5" to="-72570258#3"/>
    <trip id="bike120" type="bike_bicycle" depart="34.30" departLane="best" from="20313520#5" to="33285983#4"/>
    <trip id="bike121" type="bike_bicycle" depart="34.58" departLane="best" departSpeed="max" from="-397290473#1" to="28146452#0"/>
    <trip id="bike122" type="bike_bicycle" depart="34.87" departLane="best" departSpeed="max" from="-1194779541#1" to="-959829901"/>
    <trip id="bike123" type="bike_bicycle" depart="35.15" departLane="best" from="99536613#6" to="98346649#0"/>
    <trip id="bike124" type="bike_bicycle" depart="35.44" departLane="best" from="-1195284417#1" to="-1092871899"/>
    <trip id="bike125" type="bike_bicycle" depart="35.73" departLane="best" from="-299031292#4" to="67628509#3"/>
    <trip id="bike126" type="bike_bicycle" depart="36.01" departLane="best" from="54566921#0" to="4730738#1"/>
    <trip id="bike128" type="bike_bicycle" depart="36.58" departLane="best" from="41260918#10" to="-24382790#0"/>
    <trip id="bike129" type="bike_bicycle" depart="36.87" departLane="best" from="-144175117#12" to="957245678"/>
    <trip id="bike130" type="bike_bicycle" depart="37.15" departLane="best" from="-166683498" to="1044269020#1"/>
    <trip id="bike131" type="bike_bicycle" depart="37.44" departLane="best" from="-37296483#4" to="-332167218#4"/>
    <trip id="bike132" type="bike_bicycle" depart="37.73" departLane="best" from="180800447#0" to="734942286#5"/>
    <trip id="bike133" type="bike_bicycle" depart="38.01" departLane="best" from="-148733590#1" to="-1329707086#0"/>
    <trip id="bike134" type="bike_bicycle" depart="38.30" departLane="best" from="-135704962" to="116420681"/>
    <trip id="bike135" type="bike_bicycle" depart="38.58" departLane="best" departSpeed="max" from="-313411170#3" to="1332830985"/>
    <trip id="bike136" type="bike_bicycle" depart="38.87" departLane="best" from="-26734544#2" to="246431673"/>
    <trip id="bike137" type="bike_bicycle" depart="39.16" departLane="best" from="-153841737#8" to="28497957#14"/>
    <trip id="bike138" type="bike_bicycle" depart="39.44" departLane="best" departSpeed="max" from="1118959069" to="545727866#2"/>
    <trip id="bike139" type="bike_bicycle" depart="39.73" departLane="best" from="4416115#9" to="-122412460#3"/>
    <trip id="bike140" type="bike_bicycle" depart="40.01" departLane="best" departSpeed="max" from="-92057003" to="29161828#0"/>
    <trip id="bike141" type="bike_bicycle" depart="40.30" departLane="best" from="-10274019#4" to="-28474544#9"/>
    <trip id="bike142" type="bike_bicycle" depart="40.58" departLane="best" from="15530834" to="28475088#7"/>
    <trip id="bike143" type="bike_bicycle" depart="40.87" departLane="best" from="-28311972#3" to="1162973589#1"/>
    <trip id="bike144" type="bike_bicycle" depart="41.16" departLane="best" from="-9404191#0" to="-1054404939"/>
    <trip id="bike145" type="bike_bicycle" depart="41.44" departLane="best" from="-1200608280#2" to="4770126#1"/>
    <trip id="bike146" type="bike_bicycle" depart="41.73" departLane="best" departSpeed="max" from="655465812#0" to="1158250464#0"/>
    <trip id="bike147" type="bike_bicycle" depart="42.01" departLane="best" from="41429765#0" to="1242649826#1"/>
    <trip id="bike148" type="bike_bicycle" depart="42.30" departLane="best" from="-15747914#1" to="-141234600#1"/>
    <trip id="bike149" type="bike_bicycle" depart="42.59" departLane="best" from="-38536580#3" to="522239798#0"/>
    <trip id="bike151" type="bike_bicycle" depart="43.16" departLane="best" from="-61819185#1" to="24759992#13"/>
    <trip id="bike152" type="bike_bicycle" depart="43.44" departLane="best" from="-28475088#3" to="-1279278632#0"/>
    <trip id="bike153" type="bike_bicycle" depart="43.73" departLane="best" departSpeed="max" from="306280136" to="4770743#3"/>
    <trip id="bike154" type="bike_bicycle" depart="44.01" departLane="best" departSpeed="max" from="-808753103" to="142168653"/>
    <trip id="bike155" type="bike_bicycle" depart="44.30" departLane="best" departSpeed="max" from="-15958973#2" to="65253893#1"/>
    <trip id="bike156" type="bike_bicycle" depart="44.59" departLane="best" from="-48803266#8" to="92476684#4"/>
    <trip id="bike157" type="bike_bicycle" depart="44.87" departLane="best" from="-362811448#1" to="4767609#2"/>
    <trip id="bike158" type="bike_bicycle" depart="45.16" departLane="best" from="-1092715751#0" to="26833623#4"/>
    <trip id="bike159" type="bike_bicycle" depart="45.44" departLane="best" from="448698276#0" to="65745651"/>
    <trip id="bike160" type="bike_bicycle" depart="45.73" departLane="best" from="34254664#13" to="4330807#13"/>
    <trip id="bike161" type="bike_bicycle" depart="46.01" departLane="best" from="362806034#2" to="-28584325#0"/>
    <trip id="bike162" type="bike_bicycle" depart="46.30" departLane="best" from="-31855248#7" to="-1302699970#2"/>
    <trip id="bike163" type="bike_bicycle" depart="46.59" departLane="best" departSpeed="max" from="5106273#0" to="-42032334#13"/>
    <trip id="bike164" type="bike_bicycle" depart="46.87" departLane="best" from="27276943#0" to="-33285985#1"/>
    <trip id="bike165" type="bike_bicycle" depart="47.16" departLane="best" departSpeed="max" from="1054404927" to="34642045#0"/>
    <trip id="bike166" type="bike_bicycle" depart="47.44" departLane="best" from="-33076820#1" to="26721310#0"/>
    <trip id="bike167" type="bike_bicycle" depart="47.73" departLane="best" from="-1090884577" to="22278141#3"/>
    <trip id="bike168" type="bike_bicycle" depart="48.02" departLane="best" departSpeed="max" from="-437452827" to="4330808#17"/>
    <trip id="bike169" type="bike_bicycle" depart="48.30" departLane="best" departSpeed="max" from="955962703" to="-293566395#1"/>
    <trip id="bike170" type="bike_bicycle" depart="48.59" departLane="best" from="15783594#3" to="755826932#0"/>
    <trip id="bike171" type="bike_bicycle" depart="48.87" departLane="best" departSpeed="max" from="959829949" to="114887700#4"/>
    <trip id="bike172" type="bike_bicycle" depart="49.16" departLane="best" from="8499850#0" to="-158717408#5"/>
    <trip id="bike173" type="bike_bicycle" depart="49.44" departLane="best" departSpeed="max" from="957217672" to="167625684#0"/>
    <trip id="bike174" type="bike_bicycle" depart="49.73" departLane="best" departSpeed="max" from="955953369" to="-28500091#11"/>
    <trip id="bike175" type="bike_bicycle" depart="50.02" departLane="best" from="-13857742#1" to="944754652#0"/>
    <trip id="bike176" type="bike_bicycle" depart="50.30" departLane="best" from="-27547876#3" to="368138683#2"/>
    <trip id="bike177" type="bike_bicycle" depart="50.59" departLane="best" departSpeed="max" from="143073520" to="1093109146#1"/>
    <trip id="bike178" type="bike_bicycle" depart="50.87" departLane="best" from="-633901888#0" to="122412447#2"/>
    <trip id="bike179" type="bike_bicycle" depart="51.16" departLane="best" from="-28613751" to="24722081#1"/>
    <trip id="bike180" type="bike_bicycle" depart="51.45" departLane="best" from="-101841551#0" to="615472729#2"/>
    <trip id="bike181" type="bike_bicycle" depart="51.73" departLane="best" departSpeed="max" from="1180446703" to="25383193#4"/>
    <trip id="bike182" type="bike_bicycle" depart="52.02" departLane="best" from="-28351614#0" to="-167567450#1"/>
    <trip id="bike183" type="bike_bicycle" depart="52.30" departLane="best" from="-548733024#1" to="-1165331115"/>
    <trip id="bike184" type="bike_bicycle" depart="52.59" departLane="best" from="-180860849#0" to="411915327#0"/>
    <trip id="bike185" type="bike_bicycle" depart="52.87" departLane="best" departSpeed="max" from="-393652053" to="-39407122#3"/>
    <trip id="bike186" type="bike_bicycle" depart="53.16" departLane="best" from="-26833612#0" to="333929422#0"/>
    <trip id="bike187" type="bike_bicycle" depart="53.45" departLane="best" from="-388554679#1" to="-806931862#0"/>
    <trip id="bike188" type="bike_bicycle" depart="53.73" departLane="best" departSpeed="max" from="-804911824" to="-33057847#7"/>
    <trip id="bike189" type="bike_bicycle" depart="54.02" departLane="best" from="144175153#3" to="-84618574#0"/>
    <trip id="bike190" type="bike_bicycle" depart="54.30" departLane="best" from="863477573#1" to="180845730#6"/>
    <trip id="bike191" type="bike_bicycle" depart="54.59" departLane="best" from="642939340#1" to="141234596#2"/>
    <trip id="bike192" type="bike_bicycle" depart="54.87" departLane="best" from="-367475109#3" to="1160409538"/>
    <trip id="bike193" type="bike_bicycle" depart="55.16" departLane="best" from="-100719012" to="-313134650#2"/>
    <trip id="bike194" type="bike_bicycle" depart="55.45" departLane="best" departSpeed="max" from="-942602371#1" to="1230077669"/>
    <trip id="bike195" type="bike_bicycle" depart="55.73" departLane="best" from="16679422#1" to="-96945256#0"/>
    <trip id="bike196" type="bike_bicycle" depart="56.02" departLane="best" from="-977074601#0" to="25173001#2"/>
    <trip id="bike197" type="bike_bicycle" depart="56.30" departLane="best" from="1085798782" to="53227093#5"/>
    <trip id="bike198" type="bike_bicycle" depart="56.59" departLane="best" from="33121137#2" to="-159507126"/>
    <trip id="bike199" type="bike_bicycle" depart="56.88" departLane="best" departSpeed="max" from="-1237643515" to="1103908660"/>
    <trip id="bike200" type="bike_bicycle" depart="57.16" departLane="best" from="15291326#0" to="-4303181#0"/>
    <trip id="bike201" type="bike_bicycle" depart="57.45" departLane="best" from="37639386#1" to="-28131431#5"/>
    <trip id="bike202" type="bike_bicycle" depart="57.73" departLane="best" from="205130838#0" to="958968290#0"/>
    <trip id="bike203" type="bike_bicycle" depart="58.02" departLane="best" from="-252552219#1" to="-1092873497#0"/>
    <trip id="bike204" type="bike_bicycle" depart="58.30" departLane="best" from="28458607#31" to="-985576950"/>
    <trip id="bike205" type="bike_bicycle" depart="58.59" departLane="best" departSpeed="max" from="454014561" to="-117356923#2"/>
    <trip id="bike206" type="bike_bicycle" depart="58.88" departLane="best" from="83604568#1" to="144175156#1"/>
    <trip id="bike207" type="bike_bicycle" depart="59.16" departLane="best" from="24759370#11" to="22923712#10"/>
    <trip id="bike208" type="bike_bicycle" depart="59.45" departLane="best" from="1127449692" to="28177698#2"/>
    <trip id="bike209" type="bike_bicycle" depart="59.73" departLane="best" from="-16681458#2" to="-103574800#2"/>
    <trip id="bike210" type="bike_bicycle" depart="60.02" departLane="best" from="28459337#24" to="-28459380#11"/>
    <trip id="bike211" type="bike_bicycle" depart="60.31" departLane="best" from="-135185121#1" to="-90854956"/>
    <trip id="bike212" type="bike_bicycle" depart="60.59" departLane="best" from="-222484828#7" to="81632488#1"/>
    <trip id="bike213" type="bike_bicycle" depart="60.88" departLane="best" departSpeed="max" from="1164479751" to="-1157907679#2"/>
    <trip id="bike214" type="bike_bicycle" depart="61.16" departLane="best" from="28474968#15" to="39407157#5"/>
    <trip id="bike215" type="bike_bicycle" depart="61.45" departLane="best" from="103704864#0" to="314259773#4"/>
    <trip id="bike216" type="bike_bicycle" depart="61.73" departLane="best" from="191793784#0" to="-958561028"/>
    <trip id="bike217" type="bike_bicycle" depart="62.02" departLane="best" from="-14034625#3" to="806134915#2"/>
    <trip id="bike218" type="bike_bicycle" depart="62.31" departLane="best" from="59054098#2" to="14034604#20"/>
    <trip id="bike219" type="bike_bicycle" depart="62.59" departLane="best" from="26745835#3" to="1090458355#2"/>
    <trip id="bike220" type="bike_bicycle" depart="62.88" departLane="best" from="-40776498#5" to="-1160409528"/>
    <trip id="bike221" type="bike_bicycle" depart="63.16" departLane="best" from="613498958#1" to="27392867"/>
    <trip id="bike222" type="bike_bicycle" depart="63.45" departLane="best" from="10888303#0" to="-28459346"/>
    <trip id="bike223" type="bike_bicycle" depart="63.74" departLane="best" from="28459386#4" to="-148629287#2"/>
    <trip id="bike224" type="bike_bicycle" depart="64.02" departLane="best" from="288229934#0" to="1118887407#1"/>
    <trip id="bike225" type="bike_bicycle" depart="64.31" departLane="best" departSpeed="max" from="150934896" to="29100081#1"/>
    <trip id="bike226" type="bike_bicycle" depart="64.59" departLane="best" from="-1207641999#0" to="-309233097#3"/>
    <trip id="bike227" type="bike_bicycle" depart="64.88" departLane="best" departSpeed="max" from="-312214369" to="38701689#1"/>
    <trip id="bike228" type="bike_bicycle" depart="65.16" departLane="best" from="118489436#1" to="-144111308#0"/>
    <trip id="bike229" type="bike_bicycle" depart="65.45" departLane="best" from="-28203070#1" to="22398877#0"/>
    <trip id="bike230" type="bike_bicycle" depart="65.74" departLane="best" from="256938373#1" to="-1165277343"/>
    <trip id="bike231" type="bike_bicycle" depart="66.02" departLane="best" departSpeed="max" from="-81286379#2" to="-115610281#1"/>
    <trip id="bike232" type="bike_bicycle" depart="66.31" departLane="best" departSpeed="max" from="-844535410" to="-24722196#9"/>
    <trip id="bike233" type="bike_bicycle" depart="66.59" departLane="best" departSpeed="max" from="-891036923" to="-544122142#7"/>
    <trip id="bike234" type="bike_bicycle" depart="66.88" departLane="best" departSpeed="max" from="1324856700" to="22718969#11"/>
    <trip id="bike235" type="bike_bicycle" depart="67.16" departLane="best" from="-4730746#1" to="28458349#12"/>
    <trip id="bike236" type="bike_bicycle" depart="67.45" departLane="best" from="-613091844" to="-103681285#21"/>
    <trip id="bike237" type="bike_bicycle" depart="67.74" departLane="best" from="5021671#3" to="-28215629#2"/>