<?xml version="1.0" encoding="UTF-8"?>

<!-- generated on 2024-11-26 19:18:58.878926 by osmwebwizard.py v1_21_0+0000-d7b3b481c43
<configuration>
    <net-file value="C:\Users\ogach\Sumo\2024-11-26-18-56-57\osm.net.xml.gz"/>
    <output-trip-file value="C:\Users\ogach\Sumo\2024-11-26-18-56-57\osm.motorcycle.trips.xml"/>
    <route-file value="C:\Users\ogach\Sumo\2024-11-26-18-56-57\osm.motorcycle.rou.xml"/>
    <prefix value="motorcycle"/>
    <trip-attributes value="departLane=&quot;best&quot;"/>
    <fringe-start-attributes value="departSpeed=&quot;max&quot;"/>
    <vehicle-class value="motorcycle"/>
    <fringe-factor value="2"/>
    <vclass value="motorcycle"/>
    <via-edge-types value="highway.motorway,highway.motorway_link,highway.trunk_link,highway.primary_link,highway.secondary_link,highway.tertiary_link"/>
    <max-distance value="1200.0"/>
    <remove-loops value="True"/>
    <validate value="True"/>
    <end value="7200.0"/>
    <insertion-density value="4.0"/>
</configuration>
-->

<!-- generated on 2024-11-26 19:18:51 by Eclipse SUMO duarouter Version 1.21.0
<duarouterConfiguration xmlns:xsi="http://www.w3.org/2001/XMLSchema-instance" xsi:noNamespaceSchemaLocation="http://sumo.dlr.de/xsd/duarouterConfiguration.xsd">

    <input>
        <net-file value="C:\Users\ogach\Sumo\2024-11-26-18-56-57\osm.net.xml.gz"/>
        <route-files value="C:\Users\ogach\Sumo\2024-11-26-18-56-57\osm.motorcycle.trips.xml"/>
    </input>

    <output>
        <output-file value="C:\Users\ogach\Sumo\2024-11-26-18-56-57\osm.motorcycle.trips.xml.tmp"/>
        <alternatives-output value="NUL"/>
        <write-trips value="true"/>
    </output>

    <processing>
        <remove-loops value="true"/>
    </processing>

    <time>
        <begin value="0.0"/>
        <end value="7200.0"/>
    </time>

    <report>
        <no-warnings value="true"/>
        <ignore-errors value="true"/>
        <no-step-log value="true"/>
    </report>

</duarouterConfiguration>
-->

<routes xmlns:xsi="http://www.w3.org/2001/XMLSchema-instance" xsi:noNamespaceSchemaLocation="http://sumo.dlr.de/xsd/routes_file.xsd">
    <vType id="motorcycle_motorcycle" vClass="motorcycle"/>
    <trip id="motorcycle1" type="motorcycle_motorcycle" depart="0.95" departLane="best" departSpeed="max" from="33095677#0" to="166331032#1"/>
    <trip id="motorcycle2" type="motorcycle_motorcycle" depart="1.90" departLane="best" from="-40776498#4" to="15281525#2"/>
    <trip id="motorcycle3" type="motorcycle_motorcycle" depart="2.86" departLane="best" from="-34254662#14" to="28497957#13"/>
    <trip id="motorcycle4" type="motorcycle_motorcycle" depart="3.81" departLane="best" from="26718004#4" to="-61411505"/>
    <trip id="motorcycle5" type="motorcycle_motorcycle" depart="4.76" departLane="best" from="28458617#1" to="28458367#3"/>
    <trip id="motorcycle6" type="motorcycle_motorcycle" depart="5.71" departLane="best" from="-27263415#0" to="-27263272#0"/>
    <trip id="motorcycle7" type="motorcycle_motorcycle" depart="6.67" departLane="best" from="-134221897#5" to="-17540508#4"/>
    <trip id="motorcycle8" type="motorcycle_motorcycle" depart="7.62" departLane="best" from="10274024#4" to="41178822#2"/>
    <trip id="motorcycle9" type="motorcycle_motorcycle" depart="8.57" departLane="best" from="8079711#0" to="544122141#6"/>
    <trip id="motorcycle10" type="motorcycle_motorcycle" depart="9.52" departLane="best" from="28458622#0" to="-28498421#0"/>
    <trip id="motorcycle11" type="motorcycle_motorcycle" depart="10.47" departLane="best" from="26721307#3" to="-26718045#12"/>
    <trip id="motorcycle12" type="motorcycle_motorcycle" depart="11.43" departLane="best" from="-10274143#0" to="28472025#0"/>
    <trip id="motorcycle13" type="motorcycle_motorcycle" depart="12.38" departLane="best" from="-9404191#9" to="107136351#6"/>
    <trip id="motorcycle14" type="motorcycle_motorcycle" depart="13.33" departLane="best" from="4303599#0" to="-40776498#1"/>
    <trip id="motorcycle15" type="motorcycle_motorcycle" depart="14.28" departLane="best" from="-26999448#1" to="27141411#2"/>
    <trip id="motorcycle16" type="motorcycle_motorcycle" depart="15.24" departLane="best" from="83669398#5" to="13900135#2"/>
    <trip id="motorcycle17" type="motorcycle_motorcycle" depart="16.19" departLane="best" from="-1292623223#0" to="27094578#13"/>
    <trip id="motorcycle18" type="motorcycle_motorcycle" depart="17.14" departLane="best" from="337072049#1" to="37639387#3"/>
    <trip id="motorcycle19" type="motorcycle_motorcycle" depart="18.09" departLane="best" from="314394374#3" to="14175749#3"/>
    <trip id="motorcycle20" type="motorcycle_motorcycle" depart="19.04" departLane="best" from="1121229167#2" to="4770114#0"/>
    <trip id="motorcycle21" type="motorcycle_motorcycle" depart="20.00" departLane="best" from="8119275#0" to="-169770416#2"/>
    <trip id="motorcycle22" type="motorcycle_motorcycle" depart="20.95" departLane="best" from="-28236005#7" to="-380194909#0"/>
    <trip id="motorcycle23" type="motorcycle_motorcycle" depart="21.90" departLane="best" from="296997214#0" to="-1136951376#3"/>
    <trip id="motorcycle24" type="motorcycle_motorcycle" depart="22.85" departLane="best" from="-73014080#5" to="24481238#6"/>
    <trip id="motorcycle25" type="motorcycle_motorcycle" depart="23.80" departLane="best" from="-10887584#3" to="-14032436#8"/>
    <trip id="motorcycle26" type="motorcycle_motorcycle" depart="24.76" departLane="best" from="26103359#2" to="-28458627#3"/>
    <trip id="motorcycle27" type="motorcycle_motorcycle" depart="25.71" departLane="best" from="-33129460#9" to="24759995#5"/>
    <trip id="motorcycle28" type="motorcycle_motorcycle" depart="26.66" departLane="best" from="-27263361#8" to="806863879"/>
    <trip id="motorcycle29" type="motorcycle_motorcycle" depart="27.61" departLane="best" from="-4421005#8" to="28412411#1"/>
    <trip id="motorcycle30" type="motorcycle_motorcycle" depart="28.57" departLane="best" from="-1147542221" to="28873150"/>
    <trip id="motorcycle31" type="motorcycle_motorcycle" depart="29.52" departLane="best" from="-26604090#13" to="-28498421#1"/>
    <trip id="motorcycle32" type="motorcycle_motorcycle" depart="30.47" departLane="best" from="1103787067#3" to="-1081543226#0"/>
    <trip id="motorcycle33" type="motorcycle_motorcycle" depart="31.42" departLane="best" departSpeed="max" from="22276862#0" to="-22323481#3"/>
    <trip id="motorcycle34" type="motorcycle_motorcycle" depart="32.37" departLane="best" from="-35267042#4" to="-28458563#2"/>
    <trip id="motorcycle35" type="motorcycle_motorcycle" depart="33.33" departLane="best" from="337072049#1" to="15082850#8"/>
    <trip id="motorcycle36" type="motorcycle_motorcycle" depart="34.28" departLane="best" from="-288208932#3" to="635302092"/>
    <trip id="motorcycle37" type="motorcycle_motorcycle" depart="35.23" departLane="best" from="-306280118#5" to="14176935#0"/>
    <trip id="motorcycle38" type="motorcycle_motorcycle" depart="36.18" departLane="best" from="28474968#18" to="34254662#4"/>
    <trip id="motorcycle39" type="motorcycle_motorcycle" depart="37.14" departLane="best" from="-8119290#2" to="566212953#0"/>
    <trip id="motorcycle40" type="motorcycle_motorcycle" depart="38.09" departLane="best" from="-1149183781#2" to="-1198892549#11"/>
    <trip id="motorcycle41" type="motorcycle_motorcycle" depart="39.04" departLane="best" from="26745002#4" to="28458367#24"/>
    <trip id="motorcycle42" type="motorcycle_motorcycle" depart="39.99" departLane="best" from="132426736#0" to="-17540508#6"/>
    <trip id="motorcycle43" type="motorcycle_motorcycle" depart="40.94" departLane="best" from="5106302#4" to="9862135"/>
    <trip id="motorcycle44" type="motorcycle_motorcycle" depart="41.90" departLane="best" from="14334150#20" to="15082850#11"/>
    <trip id="motorcycle45" type="motorcycle_motorcycle" depart="42.85" departLane="best" from="-167377646#0" to="-16678657#1"/>
    <trip id="motorcycle46" type="motorcycle_motorcycle" depart="43.80" departLane="best" from="-32453965#1" to="117041232#12"/>
    <trip id="motorcycle47" type="motorcycle_motorcycle" depart="44.75" departLane="best" departSpeed="max" from="-14396400#5" to="4550704#12"/>
    <trip id="motorcycle48" type="motorcycle_motorcycle" depart="45.71" departLane="best" from="-144175115#2" to="252217938#3"/>
    <trip id="motorcycle49" type="motorcycle_motorcycle" depart="46.66" departLane="best" from="-133263676#3" to="833678874#1"/>
    <trip id="motorcycle50" type="motorcycle_motorcycle" depart="47.61" departLane="best" from="28100613#9" to="-1147542219#1"/>
    <trip id="motorcycle51" type="motorcycle_motorcycle" depart="48.56" departLane="best" from="16679602#4" to="14175890#1"/>
    <trip id="motorcycle52" type="motorcycle_motorcycle" depart="49.51" departLane="best" from="15456779#3" to="144175134#1"/>
    <trip id="motorcycle53" type="motorcycle_motorcycle" depart="50.47" departLane="best" from="4687455#18" to="28459337#22"/>
    <trip id="motorcycle54" type="motorcycle_motorcycle" depart="51.42" departLane="best" from="9400681#5" to="24721242#3"/>
    <trip id="motorcycle55" type="motorcycle_motorcycle" depart="52.37" departLane="best" from="143930444" to="-28100610#5"/>
    <trip id="motorcycle56" type="motorcycle_motorcycle" depart="53.32" departLane="best" from="-26604090#10" to="35200889#3"/>
    <trip id="motorcycle57" type="motorcycle_motorcycle" depart="54.28" departLane="best" from="4290498#11" to="-4416157#14"/>
    <trip id="motorcycle58" type="motorcycle_motorcycle" depart="55.23" departLane="best" from="-153841737#5" to="28458367#5"/>
    <trip id="motorcycle59" type="motorcycle_motorcycle" depart="56.18" departLane="best" from="-122412460#6" to="12190781#2"/>
    <trip id="motorcycle60" type="motorcycle_motorcycle" depart="57.13" departLane="best" from="14032825" to="288147333#4"/>
    <trip id="motorcycle61" type="motorcycle_motorcycle" depart="58.08" departLane="best" from="643033041#2" to="88736768"/>
    <trip id="motorcycle62" type="motorcycle_motorcycle" depart="59.04" departLane="best" from="4770140#4" to="180850711#0"/>
    <trip id="motorcycle63" type="motorcycle_motorcycle" depart="59.99" departLane="best" from="16681829#1" to="838829099"/>
    <trip id="motorcycle64" type="motorcycle_motorcycle" depart="60.94" departLane="best" from="38539862" to="-169770392#6"/>
    <trip id="motorcycle65" type="motorcycle_motorcycle" depart="61.89" departLane="best" from="1162040466#1" to="26706179#4"/>
    <trip id="motorcycle66" type="motorcycle_motorcycle" depart="62.84" departLane="best" from="-4272146#0" to="-4350264#2"/>
    <trip id="motorcycle67" type="motorcycle_motorcycle" depart="63.80" departLane="best" from="119075048#0" to="1182455827#0"/>
    <trip id="motorcycle68" type="motorcycle_motorcycle" depart="64.75" departLane="best" from="-28458563#12" to="28474921#16"/>
    <trip id="motorcycle69" type="motorcycle_motorcycle" depart="65.70" departLane="best" from="13900247#5" to="163643982#4"/>
    <trip id="motorcycle70" type="motorcycle_motorcycle" depart="66.65" departLane="best" from="20011055#4" to="-28458627#6"/>
    <trip id="motorcycle72" type="motorcycle_motorcycle" depart="68.56" departLane="best" from="-27263399" to="40814678#0"/>
    <trip id="motorcycle73" type="motorcycle_motorcycle" depart="69.51" departLane="best" from="-48754664#2" to="144175097#6"/>
    <trip id="motorcycle74" type="motorcycle_motorcycle" depart="70.46" departLane="best" from="28459337#19" to="-28458428#12"/>
    <trip id="motorcycle75" type="motorcycle_motorcycle" depart="71.41" departLane="best" from="-544122141#5" to="165768720#2"/>
    <trip id="motorcycle76" type="motorcycle_motorcycle" depart="72.37" departLane="best" from="144175117#1" to="-367556794#4"/>
    <trip id="motorcycle77" type="motorcycle_motorcycle" depart="73.32" departLane="best" from="-13900313#4" to="-13900135#2"/>
    <trip id="motorcycle78" type="motorcycle_motorcycle" depart="74.27" departLane="best" from="-28475350#14" to="-28475161#1"/>
    <trip id="motorcycle79" type="motorcycle_motorcycle" depart="75.22" departLane="best" departSpeed="max" from="144175117#0" to="27227113"/>
    <trip id="motorcycle80" type="motorcycle_motorcycle" depart="76.18" departLane="best" from="-306280118#9" to="313134650#1"/>
    <trip id="motorcycle81" type="motorcycle_motorcycle" depart="77.13" departLane="best" from="25618382#14" to="166394857#3"/>
    <trip id="motorcycle82" type="motorcycle_motorcycle" depart="78.08" departLane="best" from="7356873#1" to="56651918#10"/>
    <trip id="motorcycle83" type="motorcycle_motorcycle" depart="79.03" departLane="best" from="143930444" to="13862703#1"/>
    <trip id="motorcycle84" type="motorcycle_motorcycle" depart="79.98" departLane="best" from="-81295410#2" to="14176370#1"/>
    <trip id="motorcycle85" type="motorcycle_motorcycle" depart="80.94" departLane="best" from="14033183#1" to="-144175117#4"/>
    <trip id="motorcycle86" type="motorcycle_motorcycle" depart="81.89" departLane="best" from="-46787338#4" to="28474921#7"/>
    <trip id="motorcycle87" type="motorcycle_motorcycle" depart="82.84" departLane="best" from="-5555401#0" to="4742585#0"/>
    <trip id="motorcycle88" type="motorcycle_motorcycle" depart="83.79" departLane="best" from="28459337#4" to="11392370#3"/>
    <trip id="motorcycle89" type="motorcycle_motorcycle" depart="84.75" departLane="best" from="-29288076#4" to="-28482773"/>
    <trip id="motorcycle90" type="motorcycle_motorcycle" depart="85.70" departLane="best" from="-28180099#2" to="16681458#2"/>
    <trip id="motorcycle91" type="motorcycle_motorcycle" depart="86.65" departLane="best" from="-665352225#9" to="-4416115#0"/>
    <trip id="motorcycle92" type="motorcycle_motorcycle" depart="87.60" departLane="best" from="15288019#21" to="-144175117#1"/>
    <trip id="motorcycle93" type="motorcycle_motorcycle" depart="88.55" departLane="best" from="-4730728#1" to="4730752"/>
    <trip id="motorcycle94" type="motorcycle_motorcycle" depart="89.51" departLane="best" from="-144175134#14" to="15082850#8"/>
    <trip id="motorcycle95" type="motorcycle_motorcycle" depart="90.46" departLane="best" from="-10682355#1" to="-16590624#1"/>
    <trip id="motorcycle96" type="motorcycle_motorcycle" depart="91.41" departLane="best" from="-9400681#8" to="146668057#4"/>
    <trip id="motorcycle97" type="motorcycle_motorcycle" depart="92.36" departLane="best" from="-306280121#2" to="-99536663#1"/>
    <trip id="motorcycle98" type="motorcycle_motorcycle" depart="93.32" departLane="best" from="27263273#4" to="27473355"/>
    <trip id="motorcycle99" type="motorcycle_motorcycle" depart="94.27" departLane="best" from="4330808#26" to="25051031#5"/>
    <trip id="motorcycle100" type="motorcycle_motorcycle" depart="95.22" departLane="best" from="20005300#10" to="-22718969#4"/>
    <trip id="motorcycle101" type="motorcycle_motorcycle" depart="96.17" departLane="best" from="-55481095#2" to="-28702766#15"/>
    <trip id="motorcycle102" type="motorcycle_motorcycle" depart="97.12" departLane="best" from="218502342#0" to="-337072046#3"/>
    <trip id="motorcycle103" type="motorcycle_motorcycle" depart="98.08" departLane="best" from="-821247083#1" to="91216838#0"/>
    <trip id="motorcycle104" type="motorcycle_motorcycle" depart="99.03" departLane="best" from="-35267042#3" to="-1241323707#0"/>
    <trip id="motorcycle105" type="motorcycle_motorcycle" depart="99.98" departLane="best" from="-14175950#1" to="-1054162380#4"/>
    <trip id="motorcycle106" type="motorcycle_motorcycle" depart="100.93" departLane="best" from="10660146#1" to="158806783#1"/>
    <trip id="motorcycle107" type="motorcycle_motorcycle" depart="101.89" departLane="best" from="-33097218#5" to="28131360#1"/>
    <trip id="motorcycle108" type="motorcycle_motorcycle" depart="102.84" departLane="best" from="-26675668#35" to="26675670#10"/>
    <trip id="motorcycle109" type="motorcycle_motorcycle" depart="103.79" departLane="best" from="-28459386#4" to="4550556#1"/>
    <trip id="motorcycle110" type="motorcycle_motorcycle" depart="104.74" departLane="best" from="28458627#6" to="11392370#0"/>
    <trip id="motorcycle111" type="motorcycle_motorcycle" depart="105.69" departLane="best" from="-144175115#11" to="-14033536#16"/>
    <trip id="motorcycle112" type="motorcycle_motorcycle" depart="106.65" departLane="best" from="-1157907751#1" to="144175134#4"/>
    <trip id="motorcycle113" type="motorcycle_motorcycle" depart="107.60" departLane="best" from="39250664#1" to="14178547"/>
    <trip id="motorcycle114" type="motorcycle_motorcycle" depart="108.55" departLane="best" from="28412126#0" to="-28458349#11"/>
    <trip id="motorcycle115" type="motorcycle_motorcycle" depart="109.50" departLane="best" from="1241533753#2" to="28236005#2"/>
    <trip id="motorcycle116" type="motorcycle_motorcycle" depart="110.45" departLane="best" from="-81295410#3" to="-14176332#0"/>
    <trip id="motorcycle117" type="motorcycle_motorcycle" depart="111.41" departLane="best" from="-14334179#0" to="15958903#4"/>
    <trip id="motorcycle118" type="motorcycle_motorcycle" depart="112.36" departLane="best" from="314394375#2" to="-13900257#4"/>
    <trip id="motorcycle119" type="motorcycle_motorcycle" depart="113.31" departLane="best" from="-24759995#7" to="33097218#4"/>
    <trip id="motorcycle120" type="motorcycle_motorcycle" depart="114.26" departLane="best" from="1081874388" to="297719476#0"/>
    <trip id="motorcycle121" type="motorcycle_motorcycle" depart="115.22" departLane="best" from="157783927#1" to="32875577#0"/>
    <trip id="motorcycle122" type="motorcycle_motorcycle" depart="116.17" departLane="best" from="-4769141#0" to="1081720010"/>
    <trip id="motorcycle123" type="motorcycle_motorcycle" depart="117.12" departLane="best" departSpeed="max" from="14176332#0" to="144175115#16"/>
    <trip id="motorcycle124" type="motorcycle_motorcycle" depart="118.07" departLane="best" from="35185460#2" to="-40955188#0"/>
    <trip id="motorcycle125" type="motorcycle_motorcycle" depart="119.02" departLane="best" from="-7841900#2" to="222484828#2"/>
    <trip id="motorcycle126" type="motorcycle_motorcycle" depart="119.98" departLane="best" from="-153841737#5" to="-513400845#1"/>
    <trip id="motorcycle127" type="motorcycle_motorcycle" depart="120.93" departLane="best" from="24759998#8" to="244401002#16"/>
    <trip id="motorcycle128" type="motorcycle_motorcycle" depart="121.88" departLane="best" from="-30189516#1" to="-393243970#2"/>
    <trip id="motorcycle129" type="motorcycle_motorcycle" depart="122.83" departLane="best" from="14334150#17" to="-35082144#1"/>
    <trip id="motorcycle130" type="motorcycle_motorcycle" depart="123.79" departLane="best" from="-23092791#0" to="14176887#1"/>
    <trip id="motorcycle131" type="motorcycle_motorcycle" depart="124.74" departLane="best" from="150813800#1" to="28458349#3"/>
    <trip id="motorcycle132" type="motorcycle_motorcycle" depart="125.69" departLane="best" from="14175749#5" to="145067910#16"/>
    <trip id="motorcycle133" type="motorcycle_motorcycle" depart="126.64" departLane="best" from="805370454#3" to="401226809#2"/>
    <trip id="motorcycle134" type="motorcycle_motorcycle" depart="127.59" departLane="best" from="-28472022#8" to="91215268#1"/>
    <trip id="motorcycle135" type="motorcycle_motorcycle" depart="128.55" departLane="best" from="-177804172#1" to="1023578362"/>
    <trip id="motorcycle136" type="motorcycle_motorcycle" depart="129.50" departLane="best" from="118470582" to="24481238#10"/>
    <trip id="motorcycle137" type="motorcycle_motorcycle" depart="130.45" departLane="best" from="-306394887#2" to="15281751#2"/>
    <trip id="motorcycle138" type="motorcycle_motorcycle" depart="131.40" departLane="best" from="28458518#6" to="-26745002#9"/>
    <trip id="motorcycle139" type="motorcycle_motorcycle" depart="132.36" departLane="best" from="-1270179880#1" to="-28500091#8"/>
    <trip id="motorcycle140" type="motorcycle_motorcycle" depart="133.31" departLane="best" from="-24759370#20" to="24760005#1"/>
    <trip id="motorcycle141" type="motorcycle_motorcycle" depart="134.26" departLane="best" from="-52160555#1" to="33129383#1"/>
    <trip id="motorcycle142" type="motorcycle_motorcycle" depart="135.21" departLane="best" from="-34254664#1" to="26833631#11"/>
    <trip id="motorcycle143" type="motorcycle_motorcycle" depart="136.16" departLane="best" from="28474968#20" to="28458428#19"/>
    <trip id="motorcycle144" type="motorcycle_motorcycle" depart="137.12" departLane="best" from="35267042#2" to="-34254657#1"/>
    <trip id="motorcycle145" type="motorcycle_motorcycle" depart="138.07" departLane="best" from="-165768722#3" to="28458509#11"/>
    <trip id="motorcycle146" type="motorcycle_motorcycle" depart="139.02" departLane="best" from="-314394375#0" to="-24450645#4"/>
    <trip id="motorcycle147" type="motorcycle_motorcycle" depart="139.97" departLane="best" from="15457111#2" to="166394857#1"/>
    <trip id="motorcycle148" type="motorcycle_motorcycle" depart="140.93" departLane="best" from="-5554822#1" to="4330808#21"/>
    <trip id="motorcycle149" type="motorcycle_motorcycle" depart="141.88" departLane="best" from="-29122882#5" to="220168919#2"/>
    <trip id="motorcycle150" type="motorcycle_motorcycle" depart="142.83" departLane="best" from="25618382#14" to="-1241533749#15"/>
    <trip id="motorcycle151" type="motorcycle_motorcycle" depart="143.78" departLane="best" from="-292189141#0" to="-24759998#10"/>
    <trip id="motorcycle152" type="motorcycle_motorcycle" depart="144.73" departLane="best" from="46704529#3" to="-1136951370#0"/>
    <trip id="motorcycle153" type="motorcycle_motorcycle" depart="145.69" departLane="best" from="8119296#1" to="-15801462#7"/>
    <trip id="motorcycle154" type="motorcycle_motorcycle" depart="146.64" departLane="best" from="8079716#4" to="-1195284417#4"/>
    <trip id="motorcycle155" type="motorcycle_motorcycle" depart="147.59" departLane="best" from="-116352995#3" to="24450646#0"/>
    <trip id="motorcycle156" type="motorcycle_motorcycle" depart="148.54" departLane="best" from="8079179#6" to="26675668#19"/>
    <trip id="motorcycle157" type="motorcycle_motorcycle" depart="149.49" departLane="best" from="-244401002#4" to="-26717431#3"/>
    <trip id="motorcycle158" type="motorcycle_motorcycle" depart="150.45" departLane="best" from="26675656#4" to="21615164#10"/>
    <trip id="motorcycle159" type="motorcycle_motorcycle" depart="151.40" departLane="best" from="-941932804#1" to="14321652#1"/>
    <trip id="motorcycle160" type="motorcycle_motorcycle" depart="152.35" departLane="best" from="-15747234#2" to="15289316#2"/>
    <trip id="motorcycle161" type="motorcycle_motorcycle" depart="153.30" departLane="best" from="1242592563" to="98339298#2"/>
    <trip id="motorcycle162" type="motorcycle_motorcycle" depart="154.26" departLane="best" from="48818709#4" to="67628509#1"/>
    <trip id="motorcycle163" type="motorcycle_motorcycle" depart="155.21" departLane="best" from="60451894#11" to="-244401001#0"/>
    <trip id="motorcycle164" type="motorcycle_motorcycle" depart="156.16" departLane="best" from="48865415#2" to="67628509#2"/>
    <trip id="motorcycle165" type="motorcycle_motorcycle" depart="157.11" departLane="best" from="-46786445#1" to="34255584#3"/>
    <trip id="motorcycle167" type="motorcycle_motorcycle" depart="159.02" departLane="best" from="11412453#7" to="115649695#0"/>
    <trip id="motorcycle168" type="motorcycle_motorcycle" depart="159.97" departLane="best" from="4730757#3" to="269132345#0"/>
    <trip id="motorcycle170" type="motorcycle_motorcycle" depart="161.87" departLane="best" from="-32781216#1" to="4742665#3"/>
    <trip id="motorcycle171" type="motorcycle_motorcycle" depart="162.83" departLane="best" from="28452948" to="-26675655#3"/>
    <trip id="motorcycle172" type="motorcycle_motorcycle" depart="163.78" departLane="best" from="-20001877#0" to="-22323481#2"/>
    <trip id="motorcycle173" type="motorcycle_motorcycle" depart="164.73" departLane="best" from="28252381" to="-9404197#5"/>
    <trip id="motorcycle174" type="motorcycle_motorcycle" depart="165.68" departLane="best" from="28312361#0" to="34597296#0"/>
    <trip id="motorcycle175" type="motorcycle_motorcycle" depart="166.63" departLane="best" from="529656632#0" to="10581217#2"/>
    <trip id="motorcycle176" type="motorcycle_motorcycle" depart="167.59" departLane="best" from="169770416#3" to="1078986680"/>
    <trip id="motorcycle177" type="motorcycle_motorcycle" depart="168.54" departLane="best" from="-46787338#0" to="28498134#6"/>
    <trip id="motorcycle178" type="motorcycle_motorcycle" depart="169.49" departLane="best" from="24759996#2" to="24759365#0"/>
    <trip id="motorcycle179" type="motorcycle_motorcycle" depart="170.44" departLane="best" departSpeed="max" from="818747666#0" to="26675659#2"/>
    <trip id="motorcycle180" type="motorcycle_motorcycle" depart="171.40" departLane="best" departSpeed="max" from="-28497957#28" to="24760007#0"/>
    <trip id="motorcycle181" type="motorcycle_motorcycle" depart="172.35" departLane="best" from="-24722181#0" to="1194713608#2"/>
    <trip id="motorcycle182" type="motorcycle_motorcycle" depart="173.30" departLane="best" from="1198892549#11" to="-27141415#6"/>
    <trip id="motorcycle183" type="motorcycle_motorcycle" depart="174.25" departLane="best" from="4276189#2" to="8042047#5"/>
    <trip id="motorcycle184" type="motorcycle_motorcycle" depart="175.20" departLane="best" from="-23092791#1" to="30429750#4"/>
    <trip id="motorcycle185" type="motorcycle_motorcycle" depart="176.16" departLane="best" from="-29287722#2" to="28483793#0"/>
    <trip id="motorcycle186" type="motorcycle_motorcycle" depart="177.11" departLane="best" from="20586310#3" to="45480060#1"/>
    <trip id="motorcycle187" type="motorcycle_motorcycle" depart="178.06" departLane="best" from="1307660930#0" to="-28559896#0"/>
    <trip id="motorcycle188" type="motorcycle_motorcycle" depart="179.01" departLane="best" from="10274143#21" to="8079714#6"/>
    <trip id="motorcycle189" type="motorcycle_motorcycle" depart="179.97" departLane="best" from="-28458428#18" to="34254662#18"/>
    <trip id="motorcycle190" type="motorcycle_motorcycle" depart="180.92" departLane="best" from="5555719#0" to="589705743"/>
    <trip id="motorcycle191" type="motorcycle_motorcycle" depart="181.87" departLane="best" from="-28472024#1" to="26833612#1"/>
    <trip id="motorcycle192" type="motorcycle_motorcycle" depart="182.82" departLane="best" from="-1084471100" to="288034869#3"/>
    <trip id="motorcycle193" type="motorcycle_motorcycle" depart="183.77" departLane="best" from="28458607#14" to="-28458509#15"/>
    <trip id="motorcycle194" type="motorcycle_motorcycle" depart="184.73" departLane="best" from="1172284418#1" to="25050851#10"/>
    <trip id="motorcycle195" type="motorcycle_motorcycle" depart="185.68" departLane="best" from="40814678#0" to="27263065#2"/>
    <trip id="motorcycle196" type="motorcycle_motorcycle" depart="186.63" departLane="best" from="48803266#7" to="14179413#9"/>
    <trip id="motorcycle197" type="motorcycle_motorcycle" depart="187.58" departLane="best" from="302706310#7" to="-28475131#6"/>
    <trip id="motorcycle198" type="motorcycle_motorcycle" depart="188.53" departLane="best" from="-4770140#5" to="10136485"/>
    <trip id="motorcycle199" type="motorcycle_motorcycle" depart="189.49" departLane="best" from="-4550647#8" to="14034604#8"/>
    <trip id="motorcycle200" type="motorcycle_motorcycle" depart="190.44" departLane="best" from="-229341211#1" to="-24965011#14"/>
    <trip id="motorcycle201" type="motorcycle_motorcycle" depart="191.39" departLane="best" from="-20547124#10" to="9864218#2"/>
    <trip id="motorcycle202" type="motorcycle_motorcycle" depart="192.34" departLane="best" from="1157907986#2" to="-14032859#2"/>
    <trip id="motorcycle203" type="motorcycle_motorcycle" depart="193.30" departLane="best" from="20167442#8" to="-26675668#15"/>
    <trip id="motorcycle204" type="motorcycle_motorcycle" depart="194.25" departLane="best" from="-110676829#3" to="-26745146#0"/>
    <trip id="motorcycle205" type="motorcycle_motorcycle" depart="195.20" departLane="best" from="-302706310#8" to="-167369018#0"/>
    <trip id="motorcycle206" type="motorcycle_motorcycle" depart="196.15" departLane="best" departSpeed="max" from="-159538290" to="14033536#7"/>
    <trip id="motorcycle207" type="motorcycle_motorcycle" depart="197.10" departLane="best" from="28474968#3" to="28475400#7"/>
    <trip id="motorcycle208" type="motorcycle_motorcycle" depart="198.06" departLane="best" from="-73188457#0" to="-1160197910#0"/>
    <trip id="motorcycle210" type="motorcycle_motorcycle" depart="199.96" departLane="best" from="-28498202#1" to="24759995#3"/>
    <trip id="motorcycle211" type="motorcycle_motorcycle" depart="200.91" departLane="best" from="288078413#2" to="158806783#1"/>
    <trip id="motorcycle212" type="motorcycle_motorcycle" depart="201.87" departLane="best" from="-26833632#7" to="-165768722#20"/>
    <trip id="motorcycle213" type="motorcycle_motorcycle" depart="202.82" departLane="best" from="165768722#18" to="-35201820#1"/>
    <trip id="motorcycle214" type="motorcycle_motorcycle" depart="203.77" departLane="best" from="-28483793#0" to="28475290#5"/>
    <trip id="motorcycle215" type="motorcycle_motorcycle" depart="204.72" departLane="best" from="-1123862923#0" to="115720996#1"/>
    <trip id="motorcycle216" type="motorcycle_motorcycle" depart="205.67" departLane="best" from="-52092359#10" to="27547876#2"/>
    <trip id="motorcycle217" type="motorcycle_motorcycle" depart="206.63" departLane="best" departSpeed="max" from="144175117#0" to="367556780#1"/>