<routes xmlns:xsi="http://www.w3.org/2001/XMLSchema-instance" xsi:noNamespaceSchemaLocation="http://sumo.dlr.de/xsd/routes_file.xsd">
<vType id="bus_bus" vClass="bus"/>
    <trip id="bus0" type="bus_bus" depart="0.00" departLane="best" from="-167377646#4" to="-1126667098#1" />
    <trip id="bus1" type="bus_bus" depart="0.95" departLane="best" from="-28474921#10" to="28131307#1" />
    <trip id="bus2" type="bus_bus" depart="1.90" departLane="best" from="-27263190#3" to="24760007#1" />
    <trip id="bus3" type="bus_bus" depart="2.85" departLane="best" from="-4550705#5" to="14295674#4" />
    <trip id="bus4" type="bus_bus" depart="3.80" departLane="best" from="-8302084#1" to="-11392800#9" />
    <trip id="bus6" type="bus_bus" depart="5.71" departLane="best" from="-1125196654#2" to="26745108#5" />
    <trip id="bus7" type="bus_bus" depart="6.66" departLane="best" from="194530356#2" to="14334194#4" />
    <trip id="bus8" type="bus_bus" depart="7.61" departLane="best" from="-26833609#2" to="15748056#0" />
    <trip id="bus9" type="bus_bus" depart="8.56" departLane="best" from="293562838#2" to="-10578489#0" />
    <trip id="bus10" type="bus_bus" depart="9.51" departLane="best" from="292189141#0" to="26696447#3" />
    <trip id="bus11" type="bus_bus" depart="10.46" departLane="best" from="-4275969#1" to="23103384#2" />
    <trip id="bus12" type="bus_bus" depart="11.41" departLane="best" from="-7356866#0" to="-4767611#0" />
    <trip id="bus13" type="bus_bus" depart="12.36" departLane="best" from="-14334150#23" to="-145067910#5" />
    <trip id="bus14" type="bus_bus" depart="13.31" departLane="best" departSpeed="max" from="35200889#0" to="164681368#1" />
    <trip id="bus15" type="bus_bus" depart="14.26" departLane="best" from="292380349#0" to="27547876#8" />
    <trip id="bus16" type="bus_bus" depart="15.21" departLane="best" from="-1255673349#3" to="8119304" />
    <trip id="bus17" type="bus_bus" depart="16.17" departLane="best" from="-503274740#1" to="144175132#1" />
    <trip id="bus18" type="bus_bus" depart="17.12" departLane="best" from="32720004#3" to="169770374#2" />
    <trip id="bus19" type="bus_bus" depart="18.07" departLane="best" from="39693730#0" to="15290736#13" />
    <trip id="bus20" type="bus_bus" depart="19.02" departLane="best" from="-26103360#1" to="-1188473137#0" />
    <trip id="bus21" type="bus_bus" depart="19.97" departLane="best" from="-27263072#1" to="-337072049#2" />
    <trip id="bus22" type="bus_bus" depart="20.92" departLane="best" from="-14034604#16" to="28311972#3" />
    <trip id="bus23" type="bus_bus" depart="21.87" departLane="best" from="-144175134#10" to="313139264#2" />
    <trip id="bus24" type="bus_bus" depart="22.82" departLane="best" from="16679602#4" to="-589705753" />
    <trip id="bus25" type="bus_bus" depart="23.77" departLane="best" from="4770140#2" to="-27263072#5" />
    <trip id="bus26" type="bus_bus" depart="24.72" departLane="best" from="-28458607#23" to="589705736" />
    <trip id="bus27" type="bus_bus" depart="25.67" departLane="best" from="-18468178#4" to="166331033" />
    <trip id="bus28" type="bus_bus" depart="26.63" departLane="best" from="244401002#6" to="27547852#2" />
    <trip id="bus29" type="bus_bus" depart="27.58" departLane="best" departSpeed="max" from="-222484828#9" to="77670869#3" />
    <trip id="bus30" type="bus_bus" depart="28.53" departLane="best" departSpeed="max" from="929761977#0" to="-28447047" />
    <trip id="bus31" type="bus_bus" depart="29.48" departLane="best" from="27263104#2" to="-1145139955#1" />
    <trip id="bus32" type="bus_bus" depart="30.43" departLane="best" from="331890518#0" to="-29122880#0" />
    <trip id="bus33" type="bus_bus" depart="31.38" departLane="best" from="26717738#1" to="613151408#1" />
    <trip id="bus34" type="bus_bus" depart="32.33" departLane="best" from="4330717#6" to="-4316975#0" />
    <trip id="bus35" type="bus_bus" depart="33.28" departLane="best" from="20167442#5" to="91215268#1" />
    <trip id="bus36" type="bus_bus" depart="34.23" departLane="best" from="491977507#1" to="11414573#2" />
    <trip id="bus37" type="bus_bus" depart="35.18" departLane="best" from="14034672#0" to="28584292#2" />
    <trip id="bus38" type="bus_bus" depart="36.13" departLane="best" from="145067901" to="4767568#1" />
    <trip id="bus39" type="bus_bus" depart="37.08" departLane="best" from="60451894#12" to="-27549124#1" />
    <trip id="bus40" type="bus_bus" depart="38.04" departLane="best" from="-9862090#3" to="1288174434" />
    <trip id="bus41" type="bus_bus" depart="38.99" departLane="best" from="14197978#2" to="1194779534#1" />
    <trip id="bus42" type="bus_bus" depart="39.94" departLane="best" departSpeed="max" from="-15281525#3" to="194530356#4" />
    <trip id="bus43" type="bus_bus" depart="40.89" departLane="best" from="285489909#1" to="10598037#2" />
    <trip id="bus44" type="bus_bus" depart="41.84" departLane="best" from="-1270179881#0" to="80240654#0" />
    <trip id="bus45" type="bus_bus" depart="42.79" departLane="best" from="973095754#0" to="14034604#26" />
    <trip id="bus46" type="bus_bus" depart="43.74" departLane="best" from="8079721#7" to="4264304" />
    <trip id="bus47" type="bus_bus" depart="44.69" departLane="best" from="-1081340232#0" to="27263198#4" />
    <trip id="bus48" type="bus_bus" depart="45.64" departLane="best" from="-24721520#4" to="14177614" />
    <trip id="bus49" type="bus_bus" depart="46.59" departLane="best" from="-28458607#18" to="21615164#8" />
    <trip id="bus50" type="bus_bus" depart="47.54" departLane="best" departSpeed="max" from="-15281948" to="10864011#1" />
    <trip id="bus51" type="bus_bus" depart="48.50" departLane="best" from="10564074#2" to="73014080#13" />
    <trip id="bus52" type="bus_bus" depart="49.45" departLane="best" from="4330717#14" to="28702766#14" />
    <trip id="bus53" type="bus_bus" depart="50.40" departLane="best" from="115649695#1" to="25618382#4" />
    <trip id="bus54" type="bus_bus" depart="51.35" departLane="best" from="-48819063#3" to="-4330720#1" />
    <trip id="bus55" type="bus_bus" depart="52.30" departLane="best" from="302706310#8" to="208618181#5" />
    <trip id="bus56" type="bus_bus" depart="53.25" departLane="best" from="15529305#0" to="22718969#6" />
    <trip id="bus57" type="bus_bus" depart="54.20" departLane="best" from="28312361#4" to="14179413#9" />
    <trip id="bus59" type="bus_bus" depart="56.10" departLane="best" from="-1007388304#6" to="-45019930#4" />
    <trip id="bus60" type="bus_bus" depart="57.05" departLane="best" from="-10887458#0" to="552800106#0" />
    <trip id="bus61" type="bus_bus" depart="58.00" departLane="best" from="4330808#8" to="340808751#2" />
    <trip id="bus62" type="bus_bus" depart="58.96" departLane="best" from="-32602761#0" to="-1255673349#0" />
    <trip id="bus63" type="bus_bus" depart="59.91" departLane="best" from="4330808#17" to="665352225#11" />
    <trip id="bus64" type="bus_bus" depart="60.86" departLane="best" from="14176370#0" to="-1195284417#3" />
    <trip id="bus65" type="bus_bus" depart="61.81" departLane="best" from="-133263676#26" to="-28458509#5" />
    <trip id="bus66" type="bus_bus" depart="62.76" departLane="best" from="28458349#6" to="16239760#1" />
    <trip id="bus67" type="bus_bus" depart="63.71" departLane="best" from="1113163013#3" to="144175115#6" />
    <trip id="bus68" type="bus_bus" depart="64.66" departLane="best" from="28458509#4" to="-4330808#3" />
    <trip id="bus69" type="bus_bus" depart="65.61" departLane="best" from="83569095#14" to="-27263304#0" />
    <trip id="bus70" type="bus_bus" depart="66.56" departLane="best" from="1276117605#9" to="27547902#2" />
    <trip id="bus71" type="bus_bus" depart="67.51" departLane="best" from="26103359#6" to="4272146#5" />
    <trip id="bus72" type="bus_bus" depart="68.46" departLane="best" from="-971635753#2" to="226427245#2" />
    <trip id="bus73" type="bus_bus" depart="69.42" departLane="best" from="1003921075" to="134815691#3" />
    <trip id="bus74" type="bus_bus" depart="70.37" departLane="best" from="-15290000#3" to="28131385#0" />
    <trip id="bus75" type="bus_bus" depart="71.32" departLane="best" from="40814455#5" to="155516574" />
    <trip id="bus76" type="bus_bus" depart="72.27" departLane="best" departSpeed="max" from="-27263198#4" to="-27782503#1" />
    <trip id="bus77" type="bus_bus" depart="73.22" departLane="best" from="-135079415#2" to="-20005300#3" />
    <trip id="bus78" type="bus_bus" depart="74.17" departLane="best" from="-27263100#3" to="479928150#4" />
    <trip id="bus79" type="bus_bus" depart="75.12" departLane="best" from="393243970#1" to="-13900257#1" />
    <trip id="bus80" type="bus_bus" depart="76.07" departLane="best" departSpeed="max" from="-27547923#3" to="24722395#8" />
    <trip id="bus81" type="bus_bus" depart="77.02" departLane="best" from="26718060#3" to="-16678376#1" />
    <trip id="bus82" type="bus_bus" depart="77.97" departLane="best" from="-5555717#1" to="15289191" />
    <trip id="bus83" type="bus_bus" depart="78.92" departLane="best" from="1103787067#2" to="28565934#2" />
    <trip id="bus84" type="bus_bus" depart="79.88" departLane="best" from="292380356" to="26717689#1" />
    <trip id="bus85" type="bus_bus" depart="80.83" departLane="best" from="-144175097#10" to="1081849599#1" />
    <trip id="bus86" type="bus_bus" depart="81.78" departLane="best" from="-83569095#6" to="115507319#21" />
    <trip id="bus87" type="bus_bus" depart="82.73" departLane="best" from="-26833731#0" to="24759994#4" />
    <trip id="bus88" type="bus_bus" depart="83.68" departLane="best" from="87329618" to="14680644#0" />
    <trip id="bus89" type="bus_bus" depart="84.63" departLane="best" from="-665352223#7" to="4770465#3" />
    <trip id="bus90" type="bus_bus" depart="85.58" departLane="best" from="39693730#0" to="-28474649#2" />
    <trip id="bus91" type="bus_bus" depart="86.53" departLane="best" departSpeed="max" from="-24760007#1" to="1125852901#1" />
    <trip id="bus92" type="bus_bus" depart="87.48" departLane="best" from="-8302084#0" to="-314394375#2" />
    <trip id="bus93" type="bus_bus" depart="88.43" departLane="best" departSpeed="max" from="-28180096" to="52292833" />
    <trip id="bus94" type="bus_bus" depart="89.38" departLane="best" from="1022934320" to="-4272145#6" />
    <trip id="bus95" type="bus_bus" depart="90.34" departLane="best" from="135167243#0" to="12190781#1" />
    <trip id="bus96" type="bus_bus" depart="91.29" departLane="best" from="995312886" to="-34424558#9" />
    <trip id="bus97" type="bus_bus" depart="92.24" departLane="best" from="35201820#1" to="24759070#8" />
    <trip id="bus98" type="bus_bus" depart="93.19" departLane="best" from="1135136377#0" to="-27263854#3" />
    <trip id="bus99" type="bus_bus" depart="94.14" departLane="best" from="613091846" to="1270179875#1" />
    <trip id="bus100" type="bus_bus" depart="95.09" departLane="best" from="-503274742#1" to="-89869128#2" />
    <trip id="bus102" type="bus_bus" depart="96.99" departLane="best" from="10581218#1" to="1063200731" />
    <trip id="bus103" type="bus_bus" depart="97.94" departLane="best" from="-7356866#10" to="973095754#0" />
    <trip id="bus104" type="bus_bus" depart="98.89" departLane="best" from="-13900313#3" to="27263072#4" />
    <trip id="bus105" type="bus_bus" depart="99.84" departLane="best" from="191095236#0" to="-35200893#0" />
    <trip id="bus106" type="bus_bus" depart="100.80" departLane="best" from="8079179#6" to="153841737#4" />
    <trip id="bus107" type="bus_bus" depart="101.75" departLane="best" from="-375149031#18" to="-28253209#0" />
    <trip id="bus108" type="bus_bus" depart="102.70" departLane="best" from="-122562838" to="15520507#4" />
    <trip id="bus109" type="bus_bus" depart="103.65" departLane="best" from="1157681667#0" to="392591899#2" />
    <trip id="bus110" type="bus_bus" depart="104.60" departLane="best" from="-20167442#17" to="-789110875#2" />
    <trip id="bus111" type="bus_bus" depart="105.55" departLane="best" from="-14034604#22" to="-26675661#2" />
    <trip id="bus112" type="bus_bus" depart="106.50" departLane="best" from="15286840#2" to="24759999#1" />
    <trip id="bus113" type="bus_bus" depart="107.45" departLane="best" departSpeed="max" from="27473317" to="-157783927#0" />
    <trip id="bus114" type="bus_bus" depart="108.40" departLane="best" from="4550471#1" to="-28459337#4" />
    <trip id="bus115" type="bus_bus" depart="109.35" departLane="best" from="-15282170#1" to="169770394#0" />
    <trip id="bus116" type="bus_bus" depart="110.30" departLane="best" from="1248037609#1" to="15461182#3" />
    <trip id="bus117" type="bus_bus" depart="111.25" departLane="best" from="1207675366#0" to="566329083#2" />
    <trip id="bus118" type="bus_bus" depart="112.21" departLane="best" from="-26629463#0" to="-27141415#7" />
    <trip id="bus119" type="bus_bus" depart="113.16" departLane="best" from="-27547947#3" to="-91216838#2" />
    <trip id="bus120" type="bus_bus" depart="114.11" departLane="best" from="-22718969#8" to="-367556789#2" />
    <trip id="bus121" type="bus_bus" depart="115.06" departLane="best" from="337072046#1" to="28311972#2" />
    <trip id="bus122" type="bus_bus" depart="116.01" departLane="best" departSpeed="max" from="-13551494#7" to="1141324036#0" />
    <trip id="bus123" type="bus_bus" depart="116.96" departLane="best" from="9864166#7" to="977074550#1" />
    <trip id="bus124" type="bus_bus" depart="117.91" departLane="best" from="-13698608#2" to="27263417#1" />
    <trip id="bus125" type="bus_bus" depart="118.86" departLane="best" from="-28458509#7" to="5555402#2" />
    <trip id="bus126" type="bus_bus" depart="119.81" departLane="best" from="440634771" to="4495049#0" />
    <trip id="bus127" type="bus_bus" depart="120.76" departLane="best" from="-4770131#5" to="24450646#0" />
    <trip id="bus128" type="bus_bus" depart="121.71" departLane="best" from="33095901#1" to="-26718045#9" />
    <trip id="bus129" type="bus_bus" depart="122.67" departLane="best" from="155516499#19" to="91215268#2" />
    <trip id="bus130" type="bus_bus" depart="123.62" departLane="best" from="-20010879#3" to="1059381209#0" />
    <trip id="bus131" type="bus_bus" depart="124.57" departLane="best" from="-306280121#2" to="-364165133#0" />
    <trip id="bus132" type="bus_bus" depart="125.52" departLane="best" from="218923283#2" to="594528672#1" />
    <trip id="bus133" type="bus_bus" depart="126.47" departLane="best" from="-150813800#1" to="144175134#8" />
    <trip id="bus134" type="bus_bus" depart="127.42" departLane="best" from="-28459386#0" to="165342547#1" />
    <trip id="bus135" type="bus_bus" depart="128.37" departLane="best" from="26717861#6" to="26833730#2" />
    <trip id="bus136" type="bus_bus" depart="129.32" departLane="best" from="-16678657#10" to="-28702766#9" />
    <trip id="bus137" type="bus_bus" depart="130.27" departLane="best" from="11403654#11" to="479928150#2" />
    <trip id="bus138" type="bus_bus" depart="131.22" departLane="best" from="35082145#2" to="144175115#5" />
    <trip id="bus139" type="bus_bus" depart="132.17" departLane="best" from="83569095#6" to="-306394887#9" />
    <trip id="bus140" type="bus_bus" depart="133.13" departLane="best" from="-10274025#6" to="28474921#20" />
    <trip id="bus141" type="bus_bus" depart="134.08" departLane="best" from="-16680894#1" to="-28559896#0" />
    <trip id="bus142" type="bus_bus" depart="135.03" departLane="best" from="27425894#8" to="-144175125#0" />
    <trip id="bus143" type="bus_bus" depart="135.98" departLane="best" departSpeed="max" from="-9112102#11" to="-1081330601#0" />
    <trip id="bus145" type="bus_bus" depart="137.88" departLane="best" from="4769144#2" to="14395865#1" />
    <trip id="bus146" type="bus_bus" depart="138.83" departLane="best" from="-33129437#0" to="15457211#2" />
    <trip id="bus147" type="bus_bus" depart="139.78" departLane="best" from="-16681039#0" to="15951623#1" />
    <trip id="bus148" type="bus_bus" depart="140.73" departLane="best" from="-32648433#2" to="-4767611#5" />
    <trip id="bus149" type="bus_bus" depart="141.68" departLane="best" from="28663475#0" to="4264302#4" />
    <trip id="bus150" type="bus_bus" depart="142.63" departLane="best" from="4730751#3" to="27263100#3" />
    <trip id="bus151" type="bus_bus" depart="143.59" departLane="best" departSpeed="max" from="-28177698#3" to="15281558#5" />
    <trip id="bus152" type="bus_bus" depart="144.54" departLane="best" from="-28474921#16" to="4550469#4" />
    <trip id="bus153" type="bus_bus" depart="145.49" departLane="best" from="-28482773" to="-169770416#2" />
    <trip id="bus154" type="bus_bus" depart="146.44" departLane="best" from="-187010490" to="552885496#2" />
    <trip id="bus155" type="bus_bus" depart="147.39" departLane="best" from="-40814454#7" to="821113931" />
    <trip id="bus156" type="bus_bus" depart="148.34" departLane="best" from="295995804#2" to="-45421648#0" />
    <trip id="bus157" type="bus_bus" depart="149.29" departLane="best" from="1172284419" to="-28100614#4" />
    <trip id="bus158" type="bus_bus" depart="150.24" departLane="best" from="-390145069#1" to="-55481095#1" />
    <trip id="bus159" type="bus_bus" depart="151.19" departLane="best" from="28965364#2" to="4290496#1" />
    <trip id="bus160" type="bus_bus" depart="152.14" departLane="best" from="295995804#1" to="-288888536#11" />
    <trip id="bus161" type="bus_bus" depart="153.09" departLane="best" from="28483793#0" to="15289865#8" />
    <trip id="bus162" type="bus_bus" depart="154.05" departLane="best" from="4303349#2" to="40814454#8" />
    <trip id="bus163" type="bus_bus" depart="155.00" departLane="best" from="-26833731#1" to="322576740#2" />
    <trip id="bus164" type="bus_bus" depart="155.95" departLane="best" from="1081638359#1" to="-39153666#2" />
    <trip id="bus165" type="bus_bus" depart="156.90" departLane="best" from="28638795" to="-28203069#1" />
    <trip id="bus167" type="bus_bus" depart="158.80" departLane="best" departSpeed="max" from="806960311" to="317627357#1" />
    <trip id="bus168" type="bus_bus" depart="159.75" departLane="best" from="169770395#0" to="-953842107#0" />
    <trip id="bus169" type="bus_bus" depart="160.70" departLane="best" departSpeed="max" from="83569096#0" to="14177063#0" />
    <trip id="bus170" type="bus_bus" depart="161.65" departLane="best" from="589705743" to="-15455565#7" />
    <trip id="bus171" type="bus_bus" depart="162.60" departLane="best" from="8079717#8" to="25618382#2" />
    <trip id="bus172" type="bus_bus" depart="163.55" departLane="best" from="80139632#0" to="288147333#3" />
    <trip id="bus173" type="bus_bus" depart="164.51" departLane="best" departSpeed="max" from="-15084368#2" to="10863896#4" />
    <trip id="bus174" type="bus_bus" depart="165.46" departLane="best" from="-26833631#7" to="-4290498#7" />
    <trip id="bus175" type="bus_bus" depart="166.41" departLane="best" departSpeed="max" from="15455565#0" to="1302637609" />
    <trip id="bus176" type="bus_bus" depart="167.36" departLane="best" from="-5214631#3" to="15290608#0" />
    <trip id="bus177" type="bus_bus" depart="168.31" departLane="best" from="-28307938#13" to="26745153#4" />
    <trip id="bus178" type="bus_bus" depart="169.26" departLane="best" from="-10274019#1" to="-54039108#4" />
    <trip id="bus179" type="bus_bus" depart="170.21" departLane="best" departSpeed="max" from="1275789704#0" to="-27263110" />
    <trip id="bus180" type="bus_bus" depart="171.16" departLane="best" from="115507319#13" to="24759363#1" />
    <trip id="bus181" type="bus_bus" depart="172.11" departLane="best" from="-4730747#1" to="-13900135#4" />
    <trip id="bus183" type="bus_bus" depart="174.01" departLane="best" from="-33129455#5" to="38357717#14" />
    <trip id="bus184" type="bus_bus" depart="174.97" departLane="best" from="26718045#17" to="36909113#1" />
    <trip id="bus185" type="bus_bus" depart="175.92" departLane="best" from="-32781216#1" to="1022934237" />
    <trip id="bus186" type="bus_bus" depart="176.87" departLane="best" from="-665352223#1" to="-351683428#0" />
    <trip id="bus187" type="bus_bus" depart="177.82" departLane="best" from="-15457211#0" to="1057804394" />
    <trip id="bus188" type="bus_bus" depart="178.77" departLane="best" from="59405268#4" to="24965011#10" />
    <trip id="bus189" type="bus_bus" depart="179.72" departLane="best" from="-4767611#4" to="16681039#6" />
    <trip id="bus190" type="bus_bus" depart="180.67" departLane="best" from="-306394887#19" to="144175097#8" />
    <trip id="bus191" type="bus_bus" depart="181.62" departLane="best" from="-1007388304#3" to="-33129446#4" />
    <trip id="bus192" type="bus_bus" depart="182.57" departLane="best" from="-92482040#5" to="15443042#3" />
    <trip id="bus193" type="bus_bus" depart="183.52" departLane="best" from="20167442#12" to="1149832914" />
    <trip id="bus194" type="bus_bus" depart="184.47" departLane="best" departSpeed="max" from="1022934241" to="-27263854#2" />
    <trip id="bus195" type="bus_bus" depart="185.42" departLane="best" from="1104390891#1" to="4770121#7" />
    <trip id="bus196" type="bus_bus" depart="186.38" departLane="best" from="28661120" to="24759994#2" />
    <trip id="bus197" type="bus_bus" depart="187.33" departLane="best" from="-14175769#4" to="133263676#12" />
    <trip id="bus198" type="bus_bus" depart="188.28" departLane="best" from="-166394857#1" to="-4742579#1" />
    <trip id="bus199" type="bus_bus" depart="189.23" departLane="best" from="308294790#1" to="28311802#3" />
    <trip id="bus200" type="bus_bus" depart="190.18" departLane="best" from="229341211#1" to="28131379#0" />
    <trip id="bus202" type="bus_bus" depart="192.08" departLane="best" from="-28131307#8" to="1160752475#0" />
    <trip id="bus203" type="bus_bus" depart="193.03" departLane="best" from="35317405#6" to="14033328#4" />
    <trip id="bus204" type="bus_bus" depart="193.98" departLane="best" from="-80240654#1" to="199230905#1" />
    <trip id="bus205" type="bus_bus" depart="194.93" departLane="best" from="-25051283#19" to="26675668#33" />
    <trip id="bus206" type="bus_bus" depart="195.88" departLane="best" from="1147775066#0" to="-28458622#6" />
    <trip id="bus207" type="bus_bus" depart="196.84" departLane="best" from="20192640#4" to="-103704864#2" />
    <trip id="bus208" type="bus_bus" depart="197.79" departLane="best" from="-28131307#3" to="28474673#4" />
    <trip id="bus210" type="bus_bus" depart="199.69" departLane="best" from="-24721988#7" to="744383276#0" />
    <trip id="bus211" type="bus_bus" depart="200.64" departLane="best" from="1195284417#2" to="1215144685#3" />
    <trip id="bus212" type="bus_bus" depart="201.59" departLane="best" from="-28177698#0" to="38357717#8" />
    <trip id="bus213" type="bus_bus" depart="202.54" departLane="best" from="1060051395#0" to="296994560#1" />
    <trip id="bus214" type="bus_bus" depart="203.49" departLane="best" from="22323481#5" to="91220768#1" />
    <trip id="bus215" type="bus_bus" depart="204.44" departLane="best" from="15288019#12" to="697403692#2" />
    <trip id="bus216" type="bus_bus" depart="205.39" departLane="best" from="4550704#16" to="16678657#9" />
    <trip id="bus217" type="bus_bus" depart="206.34" departLane="best" from="-26718033#0" to="-1255673349#0" />
    <trip id="bus218" type="bus_bus" depart="207.30" departLane="best" from="327554932#2" to="144175097#6" />
    <trip id="bus219" type="bus_bus" depart="208.25" departLane="best" departSpeed="max" from="4730732#0" to="28180099#3" />
    <trip id="bus220" type="bus_bus" depart="209.20" departLane="best" from="-110676829#0" to="28498202#13" />
    <trip id="bus221" type="bus_bus" depart="210.15" departLane="best" from="28131431#6" to="20586919" />
    <trip id="bus222" type="bus_bus" depart="211.10" departLane="best" from="28458349#5" to="13857742#1" />
    <trip id="bus223" type="bus_bus" depart="212.05" departLane="best" from="-164760277#3" to="-30503807#2" />
    <trip id="bus224" type="bus_bus" depart="213.00" departLane="best" from="-14033328#1" to="33097218#0" />
    <trip id="bus225" type="bus_bus" depart="213.95" departLane="best" from="-28459337#9" to="-4416157#16" />
    <trip id="bus226" type="bus_bus" depart="214.90" departLane="best" from="1281828149" to="-169770396#6" />
    <trip id="bus227" type="bus_bus" depart="215.85" departLane="best" from="-27263389#1" to="26675659#0" />
    <trip id="bus228" type="bus_bus" depart="216.80" departLane="best" from="-263932786#6" to="133263676#21" />
    <trip id="bus229" type="bus_bus" depart="217.76" departLane="best" from="-72878563#0" to="-14334150#11" />
    <trip id="bus230" type="bus_bus" depart="218.71" departLane="best" from="-80513421#3" to="-27094578#5" />
    <trip id="bus231" type="bus_bus" depart="219.66" departLane="best" from="81295414#5" to="-477249630#7" />
    <trip id="bus232" type="bus_bus" depart="220.61" departLane="best" from="-4771178#1" to="26675668#13" />
    <trip id="bus233" type="bus_bus" depart="221.56" departLane="best" from="38876876#0" to="-28458692#1" />
    <trip id="bus234" type="bus_bus" depart="222.51" departLane="best" from="5049001#5" to="-10436664#2" />
    <trip id="bus235" type="bus_bus" depart="223.46" departLane="best" from="-4495049#2" to="28397557#1" />
    <trip id="bus236" type="bus_bus" depart="224.41" departLane="best" from="37639383#0" to="72570321#8" />
    <trip id="bus237" type="bus_bus" depart="225.36" departLane="best" from="-8119290#2" to="28236031#1" />
    <trip id="bus238" type="bus_bus" depart="226.31" departLane="best" departSpeed="max" from="133021942#0" to="164679456#4" />
    <trip id="bus239" type="bus_bus" depart="227.26" departLane="best" from="-26833609#4" to="-27568750" />
    <trip id="bus240" type="bus_bus" depart="228.22" departLane="best" from="-9862106#1" to="11392614#4" />
    <trip id="bus241" type="bus_bus" depart="229.17" departLane="best" from="-40765303#1" to="-25051029#0" />
    <trip id="bus242" type="bus_bus" depart="230.12" departLane="best" from="-67575484#1" to="-24722395#21" />
    <trip id="bus243" type="bus_bus" depart="231.07" departLane="best" from="1085419751#3" to="-15951623#5" />
    <trip id="bus244" type="bus_bus" depart="232.02" departLane="best" from="-15951623#1" to="-1132124566#0" />
    <trip id="bus245" type="bus_bus" depart="232.97" departLane="best" departSpeed="max" from="-5555402#2" to="15281537#6" />
    <trip id="bus246" type="bus_bus" depart="233.92" departLane="best" from="-1125196671#3" to="222484828#9" />
    <trip id="bus247" type="bus_bus" depart="234.87" departLane="best" from="-15800916#1" to="-1147542219#0" />
    <trip id="bus248" type="bus_bus" depart="235.82" departLane="best" from="1193088041" to="-77670858#1" />
    <trip id="bus249" type="bus_bus" depart="236.77" departLane="best" from="-26717921#2" to="45480060#0" />
    <trip id="bus250" type="bus_bus" depart="237.72" departLane="best" from="28308517#8" to="-77670858#1" />
    <trip id="bus251" type="bus_bus" depart="238.68" departLane="best" from="-28131360#3" to="34254657#2" />
    <trip id="bus253" type="bus_bus" depart="240.58" departLane="best" from="-10864382#2" to="-14179508#0" />
    <trip id="bus254" type="bus_bus" depart="241.53" departLane="best" from="-99536753#2" to="505920503" />
    <trip id="bus255" type="bus_bus" depart="242.48" departLane="best" from="19801759#1" to="28498376#4" />
    <trip id="bus256" type="bus_bus" depart="243.43" departLane="best" from="19907701#1" to="28412129#2" />
    <trip id="bus257" type="bus_bus" depart="244.38" departLane="best" from="67575477#1" to="26745134#2" />
    <trip id="bus258" type="bus_bus" depart="245.33" departLane="best" departSpeed="max" from="-10888355#1" to="-224277158#3" />
    <trip id="bus259" type="bus_bus" depart="246.28" departLane="best" from="-15446033#6" to="24759070#4" />
    <trip id="bus260" type="bus_bus" depart="247.23" departLane="best" from="-14174950#9" to="27547974#3" />
    <trip id="bus261" type="bus_bus" depart="248.18" departLane="best" departSpeed="max" from="252387344#0" to="28459337#21" />
    <trip id="bus262" type="bus_bus" depart="249.14" departLane="best" from="-22793367#5" to="165973510#2" />
    <trip id="bus263" type="bus_bus" depart="250.09" departLane="best" from="28037139#1" to="15453148#1" />
    <trip id="bus264" type="bus_bus" depart="251.04" departLane="best" from="-309979718#10" to="236195164#2" />
    <trip id="bus266" type="bus_bus" depart="252.94" departLane="best" from="33095677#2" to="24965011#11" />
    <trip id="bus267" type="bus_bus" depart="253.89" departLane="best" from="-7356873#1" to="92482040#5" />
    <trip id="bus268" type="bus_bus" depart="254.84" departLane="best" departSpeed="max" from="26707142#0" to="14034604#7" />
    <trip id="bus269" type="bus_bus" depart="255.79" departLane="best" from="24759992#11" to="192101044#1" />
    <trip id="bus270" type="bus_bus" depart="256.74" departLane="best" from="-144175180#1" to="-28474968#2" />
    <trip id="bus271" type="bus_bus" depart="257.69" departLane="best" from="358539633#1" to="163450561#5" />
    <trip id="bus272" type="bus_bus" depart="258.64" departLane="best" from="-15290000#4" to="881304319#2" />
    <trip id="bus273" type="bus_bus" depart="259.59" departLane="best" from="-28475088#4" to="5012831#0" />
    <trip id="bus274" type="bus_bus" depart="260.55" departLane="best" from="-9112103#6" to="665352223#0" />
    <trip id="bus275" type="bus_bus" depart="261.50" departLane="best" from="-1159599850" to="-4835491#0" />
    <trip id="bus276" type="bus_bus" depart="262.45" departLane="best" from="35317405#2" to="328402925" />
    <trip id="bus277" type="bus_bus" depart="263.40" departLane="best" from="14680644#4" to="-789110875#2" />