<routes xmlns:xsi="http://www.w3.org/2001/XMLSchema-instance" xsi:noNamespaceSchemaLocation="http://sumo.dlr.de/xsd/routes_file.xsd">
 <vType id="veh_passenger" vClass="passenger"/>
    <trip id="veh0" type="veh_passenger" depart="0.00" departLane="best" from="180875965#1" to="112897116#5" />
    <trip id="veh1" type="veh_passenger" depart="0.32" departLane="best" departSpeed="max" from="-28498376#4" to="-28308517#11" />
    <trip id="veh2" type="veh_passenger" depart="0.65" departLane="best" from="27840895" to="263328003#0" />
    <trip id="veh3" type="veh_passenger" depart="0.97" departLane="best" from="-4730728#1" to="-14334150#21" />
    <trip id="veh4" type="veh_passenger" depart="1.30" departLane="best" from="-958168820#2" to="11392800#6" />
    <trip id="veh5" type="veh_passenger" depart="1.62" departLane="best" from="27213020#3" to="1298041170" />
    <trip id="veh6" type="veh_passenger" depart="1.95" departLane="best" from="-1125196671#8" to="27094503#0" />
    <trip id="veh7" type="veh_passenger" depart="2.27" departLane="best" from="20547124#8" to="144175118#2" />
    <trip id="veh8" type="veh_passenger" depart="2.60" departLane="best" from="30118956#1" to="-10564074#0" />
    <trip id="veh9" type="veh_passenger" depart="2.92" departLane="best" from="296994557#1" to="26833612#2" />
    <trip id="veh10" type="veh_passenger" depart="3.25" departLane="best" from="-44953495#1" to="24721242#2" />
    <trip id="veh11" type="veh_passenger" depart="3.57" departLane="best" from="-1125606969" to="-5048988#7" />
    <trip id="veh12" type="veh_passenger" depart="3.90" departLane="best" from="-14334150#8" to="14680556#7" />
    <trip id="veh14" type="veh_passenger" depart="4.55" departLane="best" from="297497593" to="28166022#0" />
    <trip id="veh15" type="veh_passenger" depart="4.87" departLane="best" from="-1286865973" to="-8119275#1" />
    <trip id="veh16" type="veh_passenger" depart="5.20" departLane="best" departSpeed="max" from="-55259974#9" to="146668057#7" />
    <trip id="veh17" type="veh_passenger" depart="5.52" departLane="best" from="33129446#3" to="19202359" />
    <trip id="veh18" type="veh_passenger" depart="5.85" departLane="best" from="4272145#8" to="15461182#4" />
    <trip id="veh19" type="veh_passenger" depart="6.17" departLane="best" departSpeed="max" from="26717431#0" to="118489436#1" />
    <trip id="veh20" type="veh_passenger" depart="6.50" departLane="best" departSpeed="max" from="-27547663" to="372302166#2" />
    <trip id="veh21" type="veh_passenger" depart="6.82" departLane="best" from="-14034645#2" to="-28458607#35" />
    <trip id="veh22" type="veh_passenger" depart="7.15" departLane="best" from="-145067910#13" to="337072046#3" />
    <trip id="veh23" type="veh_passenger" depart="7.47" departLane="best" from="169770416#4" to="-734235806#6" />
    <trip id="veh24" type="veh_passenger" depart="7.80" departLane="best" departSpeed="max" from="-5106289#1" to="27547939#6" />
    <trip id="veh25" type="veh_passenger" depart="8.12" departLane="best" from="28475131#2" to="598985649" />
    <trip id="veh26" type="veh_passenger" depart="8.45" departLane="best" from="-20192640#6" to="167377646#7" />
    <trip id="veh27" type="veh_passenger" depart="8.77" departLane="best" departSpeed="max" from="-24721988#9" to="28164731#0" />
    <trip id="veh28" type="veh_passenger" depart="9.09" departLane="best" from="228006263#2" to="-83569095#20" />
    <trip id="veh29" type="veh_passenger" depart="9.42" departLane="best" from="-9400681#10" to="22718969#2" />
    <trip id="veh30" type="veh_passenger" depart="9.74" departLane="best" from="141250622#6" to="-26675674#1" />
    <trip id="veh31" type="veh_passenger" depart="10.07" departLane="best" from="-35201816#1" to="28608709#2" />
    <trip id="veh32" type="veh_passenger" depart="10.39" departLane="best" departSpeed="max" from="-27547876#8" to="11414602#1" />
    <trip id="veh33" type="veh_passenger" depart="10.72" departLane="best" from="-367556789#1" to="313139264#1" />
    <trip id="veh34" type="veh_passenger" depart="11.04" departLane="best" departSpeed="max" from="-26745134#6" to="643032703#0" />
    <trip id="veh35" type="veh_passenger" depart="11.37" departLane="best" from="4416115#13" to="-4550470#1" />
    <trip id="veh36" type="veh_passenger" depart="11.69" departLane="best" from="-222484828#0" to="1022934201" />
    <trip id="veh37" type="veh_passenger" depart="12.02" departLane="best" from="504271407#0" to="1147775066#0" />
    <trip id="veh38" type="veh_passenger" depart="12.34" departLane="best" from="-28474921#18" to="28483788#5" />
    <trip id="veh39" type="veh_passenger" depart="12.67" departLane="best" from="-14176887#6" to="302706310#1" />
    <trip id="veh40" type="veh_passenger" depart="12.99" departLane="best" from="-150811949#0" to="4770212#0" />
    <trip id="veh41" type="veh_passenger" depart="13.32" departLane="best" departSpeed="max" from="-77191754#3" to="28177698#0" />
    <trip id="veh42" type="veh_passenger" depart="13.64" departLane="best" from="-98346607#3" to="133263668#3" />
    <trip id="veh43" type="veh_passenger" depart="13.97" departLane="best" from="-14334150#17" to="1194713608#2" />
    <trip id="veh44" type="veh_passenger" depart="14.29" departLane="best" departSpeed="max" from="-15281643#8" to="20586310#0" />
    <trip id="veh45" type="veh_passenger" depart="14.62" departLane="best" from="287835127#4" to="10817250#2" />
    <trip id="veh46" type="veh_passenger" depart="14.94" departLane="best" from="1279278632#3" to="-881304319#5" />
    <trip id="veh47" type="veh_passenger" depart="15.27" departLane="best" from="-971635768#0" to="-14176935#7" />
    <trip id="veh48" type="veh_passenger" depart="15.59" departLane="best" from="8079714#6" to="4303437" />
    <trip id="veh50" type="veh_passenger" depart="16.24" departLane="best" from="24759998#10" to="14334150#25" />
    <trip id="veh51" type="veh_passenger" depart="16.57" departLane="best" from="-28475088#4" to="229224011#2" />
    <trip id="veh52" type="veh_passenger" depart="16.89" departLane="best" departSpeed="max" from="-15287249#3" to="1104816507#0" />
    <trip id="veh53" type="veh_passenger" depart="17.22" departLane="best" from="1081375113#1" to="7356866#5" />
    <trip id="veh54" type="veh_passenger" depart="17.54" departLane="best" from="440634771" to="-30390883#6" />
    <trip id="veh55" type="veh_passenger" depart="17.86" departLane="best" from="1158436641#0" to="-26675655#6" />
    <trip id="veh56" type="veh_passenger" depart="18.19" departLane="best" from="5012855#1" to="4416157#7" />
    <trip id="veh57" type="veh_passenger" depart="18.51" departLane="best" from="32875577#0" to="224283395#2" />
    <trip id="veh58" type="veh_passenger" depart="18.84" departLane="best" from="-157783936#6" to="-244401006#7" />
    <trip id="veh59" type="veh_passenger" depart="19.16" departLane="best" from="28458607#56" to="-14334262#1" />
    <trip id="veh60" type="veh_passenger" depart="19.49" departLane="best" from="28482007#3" to="14177120#3" />
    <trip id="veh61" type="veh_passenger" depart="19.81" departLane="best" from="-1007388304#5" to="-4769124#0" />
    <trip id="veh62" type="veh_passenger" depart="20.14" departLane="best" departSpeed="max" from="-10887584#4" to="-5555324#2" />
    <trip id="veh63" type="veh_passenger" depart="20.46" departLane="best" from="-4421106#5" to="35082145#1" />
    <trip id="veh64" type="veh_passenger" depart="20.79" departLane="best" departSpeed="max" from="-34254662#23" to="-1255673349#1" />
    <trip id="veh65" type="veh_passenger" depart="21.11" departLane="best" from="4416157#8" to="697402465#1" />
    <trip id="veh66" type="veh_passenger" depart="21.44" departLane="best" from="-14177063#6" to="1207670903#4" />
    <trip id="veh67" type="veh_passenger" depart="21.76" departLane="best" from="1337180164#2" to="-28474968#13" />
    <trip id="veh68" type="veh_passenger" depart="22.09" departLane="best" from="28459380#1" to="-16590624#2" />
    <trip id="veh69" type="veh_passenger" depart="22.41" departLane="best" from="1125400263#1" to="209835519" />
    <trip id="veh70" type="veh_passenger" depart="22.74" departLane="best" from="28474921#22" to="4495046#9" />
    <trip id="veh71" type="veh_passenger" depart="23.06" departLane="best" departSpeed="max" from="-974992231" to="-27605634#0" />
    <trip id="veh72" type="veh_passenger" depart="23.39" departLane="best" from="-1309873048#2" to="28166022#2" />
    <trip id="veh73" type="veh_passenger" depart="23.71" departLane="best" from="26696448#12" to="45361910#1" />
    <trip id="veh74" type="veh_passenger" depart="24.04" departLane="best" from="958168821#2" to="246439414#1" />
    <trip id="veh75" type="veh_passenger" depart="24.36" departLane="best" from="10274020#6" to="13900257#1" />
    <trip id="veh76" type="veh_passenger" depart="24.69" departLane="best" from="-15290784#4" to="28312361#1" />
    <trip id="veh77" type="veh_passenger" depart="25.01" departLane="best" from="-4495046#12" to="-15801430#1" />
    <trip id="veh78" type="veh_passenger" depart="25.34" departLane="best" from="-27547939#1" to="-28203069#8" />
    <trip id="veh79" type="veh_passenger" depart="25.66" departLane="best" from="-13515103#18" to="213218678#2" />
    <trip id="veh80" type="veh_passenger" depart="25.99" departLane="best" departSpeed="max" from="-27547876#8" to="491954483#1" />
    <trip id="veh81" type="veh_passenger" depart="26.31" departLane="best" from="41178822#3" to="-140301863" />
    <trip id="veh82" type="veh_passenger" depart="26.63" departLane="best" from="-28131360#5" to="25051283#20" />
    <trip id="veh83" type="veh_passenger" depart="26.96" departLane="best" from="-26833632#4" to="-16681039#8" />
    <trip id="veh84" type="veh_passenger" depart="27.28" departLane="best" from="58819264" to="15290736#0" />
    <trip id="veh85" type="veh_passenger" depart="27.61" departLane="best" from="297719477#0" to="-26745002#10" />
    <trip id="veh86" type="veh_passenger" depart="27.93" departLane="best" from="-144175115#12" to="10888513#1" />
    <trip id="veh87" type="veh_passenger" depart="28.26" departLane="best" from="-981508116#1" to="-1157907986#4" />
    <trip id="veh88" type="veh_passenger" depart="28.58" departLane="best" from="-27276712" to="256752203#4" />
    <trip id="veh89" type="veh_passenger" depart="28.91" departLane="best" from="87329617" to="-150813800#2" />
    <trip id="veh90" type="veh_passenger" depart="29.23" departLane="best" from="-80507307#1" to="5106313#1" />
    <trip id="veh91" type="veh_passenger" depart="29.56" departLane="best" from="4272145#8" to="28498134#9" />
    <trip id="veh92" type="veh_passenger" depart="29.88" departLane="best" departSpeed="max" from="-25618375#2" to="-1136951376#2" />
    <trip id="veh93" type="veh_passenger" depart="30.21" departLane="best" from="-958168820#1" to="-339502462#1" />
    <trip id="veh94" type="veh_passenger" depart="30.53" departLane="best" departSpeed="max" from="-28369951#4" to="551104880" />
    <trip id="veh95" type="veh_passenger" depart="30.86" departLane="best" from="1030929334#1" to="4303613#0" />
    <trip id="veh96" type="veh_passenger" depart="31.18" departLane="best" from="13900258#1" to="-12190781#2" />
    <trip id="veh97" type="veh_passenger" depart="31.51" departLane="best" from="995312885" to="-367556780#1" />
    <trip id="veh98" type="veh_passenger" depart="31.83" departLane="best" from="807446746#2" to="552885496#0" />
    <trip id="veh99" type="veh_passenger" depart="32.16" departLane="best" from="38328169" to="24760002#3" />
    <trip id="veh100" type="veh_passenger" depart="32.48" departLane="best" from="11403654#2" to="-28100610#0" />
    <trip id="veh101" type="veh_passenger" depart="32.81" departLane="best" from="789110875#1" to="-1270179880#0" />
    <trip id="veh102" type="veh_passenger" depart="33.13" departLane="best" from="-552796439#2" to="89956935#0" />
    <trip id="veh103" type="veh_passenger" depart="33.46" departLane="best" from="-28474921#25" to="29123041#1" />
    <trip id="veh104" type="veh_passenger" depart="33.78" departLane="best" from="1081692863#2" to="1081732191#4" />
    <trip id="veh105" type="veh_passenger" depart="34.11" departLane="best" from="77670858#0" to="971635767#3" />
    <trip id="veh106" type="veh_passenger" depart="34.43" departLane="best" from="-14034625#0" to="27547947#0" />
    <trip id="veh107" type="veh_passenger" depart="34.76" departLane="best" departSpeed="max" from="-20585841" to="40776498#4" />
    <trip id="veh109" type="veh_passenger" depart="35.40" departLane="best" from="-133263676#1" to="-28458428#9" />
    <trip id="veh110" type="veh_passenger" depart="35.73" departLane="best" from="-122780827#0" to="157783938#14" />
    <trip id="veh111" type="veh_passenger" depart="36.05" departLane="best" from="1160409528" to="40826037#1" />
    <trip id="veh112" type="veh_passenger" depart="36.38" departLane="best" from="-21615164#11" to="80513421#2" />
    <trip id="veh113" type="veh_passenger" depart="36.70" departLane="best" from="141250622#1" to="-26717861#4" />
    <trip id="veh114" type="veh_passenger" depart="37.03" departLane="best" from="-15289929#5" to="257592204#2" />
    <trip id="veh115" type="veh_passenger" depart="37.35" departLane="best" from="28100610#2" to="-15793302#0" />
    <trip id="veh116" type="veh_passenger" depart="37.68" departLane="best" from="-46787338#3" to="28483788#0" />
    <trip id="veh117" type="veh_passenger" depart="38.00" departLane="best" from="-15289865#8" to="19841858#1" />
    <trip id="veh118" type="veh_passenger" depart="38.33" departLane="best" from="9404191#12" to="157783936#1" />
    <trip id="veh119" type="veh_passenger" depart="38.65" departLane="best" from="941932792#0" to="-59405268#4" />
    <trip id="veh120" type="veh_passenger" depart="38.98" departLane="best" from="-26717840#3" to="27547663" />
    <trip id="veh121" type="veh_passenger" depart="39.30" departLane="best" from="-28131426#0" to="1022934201-AddedOffRampEdge" />
    <trip id="veh122" type="veh_passenger" depart="39.63" departLane="best" from="-24721242#4" to="4272146#5" />
    <trip id="veh123" type="veh_passenger" depart="39.95" departLane="best" departSpeed="max" from="-37106374#4" to="28458617#7" />
    <trip id="veh125" type="veh_passenger" depart="40.60" departLane="best" from="9864166#4" to="974992231" />
    <trip id="veh126" type="veh_passenger" depart="40.93" departLane="best" from="-13879908#1" to="-28037147#1" />
    <trip id="veh127" type="veh_passenger" depart="41.25" departLane="best" from="-28474921#25" to="589705735" />
    <trip id="veh128" type="veh_passenger" depart="41.58" departLane="best" from="-44953417#4" to="4550704#16" />
    <trip id="veh129" type="veh_passenger" depart="41.90" departLane="best" from="-508797616#5" to="24722180#12" />
    <trip id="veh130" type="veh_passenger" depart="42.23" departLane="best" from="340808751#4" to="27094639" />
    <trip id="veh131" type="veh_passenger" depart="42.55" departLane="best" from="15800716#13" to="91216838#0" />
    <trip id="veh132" type="veh_passenger" depart="42.88" departLane="best" from="21614282#2" to="-10581219#0" />
    <trip id="veh133" type="veh_passenger" depart="43.20" departLane="best" from="314259762#0" to="-42362138#1" />
    <trip id="veh134" type="veh_passenger" depart="43.53" departLane="best" from="23025866#2" to="61113706#1" />
    <trip id="veh135" type="veh_passenger" depart="43.85" departLane="best" from="15801462#2" to="15520507#4" />
    <trip id="veh136" type="veh_passenger" depart="44.17" departLane="best" from="-15084470#7" to="14680749#5" />
    <trip id="veh137" type="veh_passenger" depart="44.50" departLane="best" from="-28497957#8" to="16679422#0" />
    <trip id="veh138" type="veh_passenger" depart="44.82" departLane="best" from="-26833631#9" to="-27263198#0" />
    <trip id="veh139" type="veh_passenger" depart="45.15" departLane="best" from="169770394#1" to="-30503807#2" />
    <trip id="veh140" type="veh_passenger" depart="45.47" departLane="best" from="11414605#2" to="48908153#1" />
    <trip id="veh141" type="veh_passenger" depart="45.80" departLane="best" from="367556794#5" to="-144175117#4" />
    <trip id="veh142" type="veh_passenger" depart="46.12" departLane="best" from="981508116#1" to="33129811#5" />
    <trip id="veh143" type="veh_passenger" depart="46.45" departLane="best" from="-10274143#16" to="-28498246#0" />
    <trip id="veh144" type="veh_passenger" depart="46.77" departLane="best" from="-1082200679#0" to="-30089061#2" />
    <trip id="veh145" type="veh_passenger" depart="47.10" departLane="best" from="1007388304#4" to="107919121#3" />
    <trip id="veh146" type="veh_passenger" depart="47.42" departLane="best" from="140178232#0" to="46787338#0" />
    <trip id="veh147" type="veh_passenger" depart="47.75" departLane="best" from="-4771179#1" to="144175122#4" />
    <trip id="veh148" type="veh_passenger" depart="48.07" departLane="best" from="-34254662#13" to="156889949#1" />
    <trip id="veh149" type="veh_passenger" depart="48.40" departLane="best" from="-17540508#1" to="165768722#5" />
    <trip id="veh150" type="veh_passenger" depart="48.72" departLane="best" from="-34254662#9" to="4771177#3" />
    <trip id="veh151" type="veh_passenger" depart="49.05" departLane="best" from="29123037#2" to="4303435" />
    <trip id="veh152" type="veh_passenger" depart="49.37" departLane="best" from="4769140#1" to="27547973#0" />
    <trip id="veh153" type="veh_passenger" depart="49.70" departLane="best" departSpeed="max" from="-28369951#4" to="15282129#0" />
    <trip id="veh154" type="veh_passenger" depart="50.02" departLane="best" from="-28497957#13" to="4687455#15" />
    <trip id="veh155" type="veh_passenger" depart="50.35" departLane="best" from="-8110836#1" to="199230893" />
    <trip id="veh156" type="veh_passenger" depart="50.67" departLane="best" from="-20547124#6" to="5556363#1" />
    <trip id="veh157" type="veh_passenger" depart="51.00" departLane="best" from="4290498#0" to="818566611" />
    <trip id="veh159" type="veh_passenger" depart="51.65" departLane="best" departSpeed="max" from="-1122849813" to="282608838" />
    <trip id="veh160" type="veh_passenger" depart="51.97" departLane="best" from="4330717#21" to="566329083#0" />
    <trip id="veh161" type="veh_passenger" depart="52.30" departLane="best" from="-29288076#3" to="-4330720#6" />
    <trip id="veh162" type="veh_passenger" depart="52.62" departLane="best" from="30429750#0" to="-30911336#1" />
    <trip id="veh163" type="veh_passenger" depart="52.94" departLane="best" from="28565934#1" to="15290000#3" />
    <trip id="veh164" type="veh_passenger" depart="53.27" departLane="best" from="4330807#8" to="4303215#1" />
    <trip id="veh166" type="veh_passenger" depart="53.92" departLane="best" from="-1082200673" to="4330808#22" />
    <trip id="veh167" type="veh_passenger" depart="54.24" departLane="best" from="29122796#2" to="-28458354#0" />
    <trip id="veh168" type="veh_passenger" depart="54.57" departLane="best" from="-1113163013#6" to="26745153#0" />
    <trip id="veh169" type="veh_passenger" depart="54.89" departLane="best" from="-4272195#3" to="4330807#11" />
    <trip id="veh171" type="veh_passenger" depart="55.54" departLane="best" from="-191095223#1" to="1023578424" />
    <trip id="veh172" type="veh_passenger" depart="55.87" departLane="best" from="83569095#17" to="14334150#15" />
    <trip id="veh173" type="veh_passenger" depart="56.19" departLane="best" from="-598985650#1" to="15520507#1" />
    <trip id="veh174" type="veh_passenger" depart="56.52" departLane="best" from="8079713#1" to="-26675655#3" />
    <trip id="veh175" type="veh_passenger" depart="56.84" departLane="best" from="805370454#1" to="306280118#7" />
    <trip id="veh176" type="veh_passenger" depart="57.17" departLane="best" departSpeed="max" from="-15281537#6" to="1104530035#1" />
    <trip id="veh177" type="veh_passenger" depart="57.49" departLane="best" from="27263849#7" to="-45480059#1" />
    <trip id="veh178" type="veh_passenger" depart="57.82" departLane="best" from="-155516498#0" to="134221897#5" />
    <trip id="veh179" type="veh_passenger" depart="58.14" departLane="best" from="-590541914" to="15457750" />
    <trip id="veh180" type="veh_passenger" depart="58.47" departLane="best" from="-28458428#0" to="27263198#4" />
    <trip id="veh181" type="veh_passenger" depart="58.79" departLane="best" from="-10274019#7" to="552796439#1" />
    <trip id="veh182" type="veh_passenger" depart="59.12" departLane="best" from="-1302697258#0" to="27547988#10" />
    <trip id="veh183" type="veh_passenger" depart="59.44" departLane="best" from="-28131311#7" to="25397772#10" />
    <trip id="veh184" type="veh_passenger" depart="59.77" departLane="best" from="-48864987#4" to="13900247#3" />
    <trip id="veh185" type="veh_passenger" depart="60.09" departLane="best" from="-23092791#3" to="-48754661#1" />
    <trip id="veh186" type="veh_passenger" depart="60.42" departLane="best" from="-35267042#9" to="401226809#2" />
    <trip id="veh187" type="veh_passenger" depart="60.74" departLane="best" from="-26998976#2" to="-4273086#2" />
    <trip id="veh188" type="veh_passenger" depart="61.07" departLane="best" from="-34254666#3" to="1030934106#0" />
    <trip id="veh189" type="veh_passenger" depart="61.39" departLane="best" from="-80347061#9" to="-40617445#2" />
    <trip id="veh190" type="veh_passenger" depart="61.71" departLane="best" from="-15545024#11" to="1081716821#2" />
    <trip id="veh191" type="veh_passenger" depart="62.04" departLane="best" from="60451894#18" to="263932786#4" />
    <trip id="veh192" type="veh_passenger" depart="62.36" departLane="best" from="4770465#3" to="587938939#0" />
    <trip id="veh193" type="veh_passenger" depart="62.69" departLane="best" from="-33097218#0" to="144382987#1" />
    <trip id="veh194" type="veh_passenger" depart="63.01" departLane="best" from="-1007388304#3" to="35317181#0" />
    <trip id="veh195" type="veh_passenger" depart="63.34" departLane="best" from="1022934199-AddedOnRampEdge" to="155516490#0" />
    <trip id="veh196" type="veh_passenger" depart="63.66" departLane="best" from="218503807#0" to="115721003#3" />
    <trip id="veh197" type="veh_passenger" depart="63.99" departLane="best" from="1028141732#1" to="-28100606#1" />
    <trip id="veh198" type="veh_passenger" depart="64.31" departLane="best" from="-1123570602#0" to="4835491#4" />
    <trip id="veh199" type="veh_passenger" depart="64.64" departLane="best" from="29123031#1" to="-25051134#13" />
    <trip id="veh200" type="veh_passenger" depart="64.96" departLane="best" from="14176887#6" to="13857743" />
    <trip id="veh201" type="veh_passenger" depart="65.29" departLane="best" from="-16805222#3" to="5012831#0" />
    <trip id="veh202" type="veh_passenger" depart="65.61" departLane="best" from="314394375#5" to="28458607#55" />
    <trip id="veh203" type="veh_passenger" depart="65.94" departLane="best" from="-24721990#3" to="-28312361#0" />
    <trip id="veh204" type="veh_passenger" depart="66.26" departLane="best" from="-26675668#14" to="-1126667214" />
    <trip id="veh205" type="veh_passenger" depart="66.59" departLane="best" from="-28236005#6" to="117090880#1" />
    <trip id="veh206" type="veh_passenger" depart="66.91" departLane="best" from="38357717#2" to="-14033536#22" />
    <trip id="veh207" type="veh_passenger" depart="67.24" departLane="best" from="-882781527" to="207704669#3" />
    <trip id="veh208" type="veh_passenger" depart="67.56" departLane="best" from="-26103359#8" to="26745153#5" />
    <trip id="veh209" type="veh_passenger" depart="67.89" departLane="best" from="-1152667499#1" to="28475290#0" />
    <trip id="veh210" type="veh_passenger" depart="68.21" departLane="best" from="222510784" to="-103704864#1" />
    <trip id="veh211" type="veh_passenger" depart="68.54" departLane="best" from="28308517#21" to="-28498134#16" />
    <trip id="veh212" type="veh_passenger" depart="68.86" departLane="best" departSpeed="max" from="-15084368#2" to="1081951844" />
    <trip id="veh213" type="veh_passenger" depart="69.19" departLane="best" from="-24722395#12" to="79384560#4" />
    <trip id="veh214" type="veh_passenger" depart="69.51" departLane="best" from="-120342737#0" to="1215144686" />
    <trip id="veh215" type="veh_passenger" depart="69.84" departLane="best" from="4767611#1" to="401226809#5" />
    <trip id="veh216" type="veh_passenger" depart="70.16" departLane="best" from="-1081718127#6" to="308294791" />
    <trip id="veh217" type="veh_passenger" depart="70.48" departLane="best" from="-244401006#1" to="91220769#0" />
    <trip id="veh218" type="veh_passenger" depart="70.81" departLane="best" from="-15289975#4" to="72570246#7" />
    <trip id="veh219" type="veh_passenger" depart="71.13" departLane="best" from="4687455#19" to="171223558#0" />
    <trip id="veh220" type="veh_passenger" depart="71.46" departLane="best" from="269132334#1" to="-1296697168" />
    <trip id="veh221" type="veh_passenger" depart="71.78" departLane="best" from="331372993#1" to="144382987#1" />
    <trip id="veh222" type="veh_passenger" depart="72.11" departLane="best" from="4767534#1" to="-28458329#10" />
    <trip id="veh223" type="veh_passenger" depart="72.43" departLane="best" from="-1125196671#4" to="29288076#3" />
    <trip id="veh224" type="veh_passenger" depart="72.76" departLane="best" from="-28308517#18" to="223805267#1" />
    <trip id="veh225" type="veh_passenger" depart="73.08" departLane="best" from="28459380#0" to="14033941#0" />
    <trip id="veh226" type="veh_passenger" depart="73.41" departLane="best" from="166400503#0" to="33097218#0" />
    <trip id="veh227" type="veh_passenger" depart="73.73" departLane="best" from="-14033536#5" to="-35200893#0" />
    <trip id="veh228" type="veh_passenger" depart="74.06" departLane="best" from="-28497957#20" to="-4730732#0" />
    <trip id="veh229" type="veh_passenger" depart="74.38" departLane="best" from="-132013293#3" to="-191385002#0" />
    <trip id="veh230" type="veh_passenger" depart="74.71" departLane="best" from="-27547974#1" to="26745002#5" />
    <trip id="veh231" type="veh_passenger" depart="75.03" departLane="best" departSpeed="max" from="26717861#0" to="133263676#25" />
    <trip id="veh232" type="veh_passenger" depart="75.36" departLane="best" from="-81295410#2" to="144175110" />
    <trip id="veh233" type="veh_passenger" depart="75.68" departLane="best" departSpeed="max" from="-9112102#11" to="-27425891#4" />
    <trip id="veh234" type="veh_passenger" depart="76.01" departLane="best" from="-9404193#0" to="-48865415#2" />
    <trip id="veh236" type="veh_passenger" depart="76.66" departLane="best" from="40617445#4" to="28475400#5" />
    <trip id="veh237" type="veh_passenger" depart="76.98" departLane="best" departSpeed="max" from="-5554819#1" to="-1039815023#1" />
    <trip id="veh238" type="veh_passenger" depart="77.31" departLane="best" from="-4730751#2" to="28458607#50" />
    <trip id="veh239" type="veh_passenger" depart="77.63" departLane="best" from="39166247#0" to="7354912#2" />
    <trip id="veh240" type="veh_passenger" depart="77.96" departLane="best" from="-9404191#10" to="28458428#3" />
    <trip id="veh241" type="veh_passenger" depart="78.28" departLane="best" from="135177704#2" to="166400507#1" />
    <trip id="veh242" type="veh_passenger" depart="78.61" departLane="best" from="-27263072#9" to="28177698#2" />
    <trip id="veh243" type="veh_passenger" depart="78.93" departLane="best" departSpeed="max" from="1023578488" to="-11392800#12" />
    <trip id="veh244" type="veh_passenger" depart="79.25" departLane="best" from="-8068329#8" to="-24759996#5" />
    <trip id="veh245" type="veh_passenger" depart="79.58" departLane="best" from="1104072121" to="165768722#9" />
    <trip id="veh246" type="veh_passenger" depart="79.90" departLane="best" from="-165768722#20" to="-1136293168#1" />
    <trip id="veh247" type="veh_passenger" depart="80.23" departLane="best" from="-708523715#2" to="15288404#6" />
    <trip id="veh248" type="veh_passenger" depart="80.55" departLane="best" departSpeed="max" from="-1125606969" to="23092795#1" />
    <trip id="veh249" type="veh_passenger" depart="80.88" departLane="best" from="-158806783#9" to="1152667499#1" />
    <trip id="veh250" type="veh_passenger" depart="81.20" departLane="best" from="1193651044#3" to="-83569095#15" />
    <trip id="veh251" type="veh_passenger" depart="81.53" departLane="best" from="-26745153#8" to="-4770500" />
    <trip id="veh252" type="veh_passenger" depart="81.85" departLane="best" from="-28458607#2" to="-83569095#15" />
    <trip id="veh253" type="veh_passenger" depart="82.18" departLane="best" from="-28311971#0" to="350996624#1" />
    <trip id="veh254" type="veh_passenger" depart="82.50" departLane="best" from="28458329#6" to="-14177765#0" />
    <trip id="veh255" type="veh_passenger" depart="82.83" departLane="best" from="-10887584#3" to="14336648" />
    <trip id="veh256" type="veh_passenger" depart="83.15" departLane="best" from="-99536753#2" to="5556363#4" />
    <trip id="veh257" type="veh_passenger" depart="83.48" departLane="best" from="205493222" to="288208932#3" />
    <trip id="veh258" type="veh_passenger" depart="83.80" departLane="best" from="206698364#5" to="28459337#9" />
    <trip id="veh259" type="veh_passenger" depart="84.13" departLane="best" from="699192571#3" to="-27094578#8" />
    <trip id="veh260" type="veh_passenger" depart="84.45" departLane="best" from="-1090884422#0" to="244401002#7" />
    <trip id="veh261" type="veh_passenger" depart="84.78" departLane="best" from="-15461182#7" to="252217938#0" />