<?xml version="1.0" encoding="UTF-8"?>

<!-- generated on 2024-11-27 17:25:26.019317 by randomTrips.py v1_21_0+0000-d7b3b481c43
<configuration>
    <net-file value="osm.net.xml.gz"/>
    <period value="10.0"/>
</configuration>
-->

<routes xmlns:xsi="http://www.w3.org/2001/XMLSchema-instance" xsi:noNamespaceSchemaLocation="http://sumo.dlr.de/xsd/routes_file.xsd">
    <trip id="0" depart="0.00" from="199230892" to="-1125200902#1"/>
    <trip id="1" depart="10.00" from="-28584292#0" to="-27547974#2"/>
    <trip id="2" depart="20.00" from="28100610#5" to="24965010#1"/>
    <trip id="3" depart="30.00" from="4687455#0" to="-14178474#0"/>
    <trip id="4" depart="40.00" from="10221444#6" to="-11392370#3"/>
    <trip id="5" depart="50.00" from="-27263065#8" to="122462504#0"/>
    <trip id="6" depart="60.00" from="-1125642346#4" to="-26717952#0"/>
    <trip id="7" depart="70.00" from="218892480#1" to="14175950#1"/>
    <trip id="8" depart="80.00" from="-27263190#1" to="15457211#2"/>
    <trip id="9" depart="90.00" from="306394887#16" to="-1044567379"/>
    <trip id="10" depart="100.00" from="30118956#0" to="26696448#2"/>
    <trip id="11" depart="110.00" from="-45421660#8" to="-22398877#11"/>
    <trip id="12" depart="120.00" from="773788851" to="-4550704#10"/>
    <trip id="13" depart="130.00" from="-14334164#5" to="-144175125#0"/>
    <trip id="14" depart="140.00" from="38536415" to="158806783#12"/>
    <trip id="15" depart="150.00" from="30390883#3" to="27547988#13"/>
    <trip id="16" depart="160.00" from="13515103#9" to="8119295"/>
    <trip id="17" depart="170.00" from="-589705750#1" to="14295674#4"/>
    <trip id="18" depart="180.00" from="33285983#7" to="16679629#1"/>
    <trip id="19" depart="190.00" from="4272216" to="15288019#4"/>
    <trip id="20" depart="200.00" from="26717861#1" to="-1171096510#1"/>
    <trip id="21" depart="210.00" from="-27547974#0" to="-32602745#6"/>
    <trip id="22" depart="220.00" from="-14034625#3" to="-28181723#1"/>
    <trip id="23" depart="230.00" from="-145067910#7" to="-296621273#3"/>
    <trip id="24" depart="240.00" from="183355045#3" to="-551410207#1"/>
    <trip id="25" depart="250.00" from="-54039108#2" to="-269132329#1"/>
    <trip id="26" depart="260.00" from="-28475296#2" to="589705750#5"/>
    <trip id="27" depart="270.00" from="210820519" to="164681798"/>
    <trip id="28" depart="280.00" from="-24722196#0" to="27547974#1"/>
    <trip id="29" depart="290.00" from="-244401001#1" to="-67575487#3"/>
    <trip id="30" depart="300.00" from="9400681#3" to="20547124#0"/>
    <trip id="31" depart="310.00" from="14179413#17" to="25618382#4"/>
    <trip id="32" depart="320.00" from="367556785#0" to="28498134#11"/>
    <trip id="33" depart="330.00" from="-27548004#0" to="-11412555#1"/>
    <trip id="34" depart="340.00" from="-38357710#5" to="-28500091#6"/>
    <trip id="35" depart="350.00" from="-26745835#0" to="624112091#1"/>
    <trip id="36" depart="360.00" from="440630605" to="-40617445#1"/>
    <trip id="37" depart="370.00" from="224277158#2" to="-820385213#0"/>
    <trip id="38" depart="380.00" from="504271403#1" to="1126109432#1"/>
    <trip id="39" depart="390.00" from="-28475088#7" to="-28458563#3"/>
    <trip id="40" depart="400.00" from="14334150#32" to="-28475400#9"/>
    <trip id="41" depart="410.00" from="15289085#2" to="4767571#0"/>
    <trip id="42" depart="420.00" from="-8079721#7" to="-27276745#1"/>
    <trip id="43" depart="430.00" from="9862369#1" to="1241483461"/>
    <trip id="44" depart="440.00" from="-14333877#3" to="-118489436#1"/>
    <trip id="45" depart="450.00" from="-15288019#11" to="17540508#9"/>
    <trip id="46" depart="460.00" from="290061465#1" to="10274024#13"/>
    <trip id="47" depart="470.00" from="-1292623223#0" to="-72570258#4"/>
    <trip id="48" depart="480.00" from="975431868#2" to="13515103#9"/>
    <trip id="49" depart="490.00" from="8079721#4" to="4275941#1"/>
    <trip id="50" depart="500.00" from="-1081543234#0" to="27263304#1"/>
    <trip id="51" depart="510.00" from="25050851#4" to="14033536#12"/>
    <trip id="52" depart="520.00" from="-28475290#3" to="20586310#4"/>
    <trip id="53" depart="530.00" from="-15288404#6" to="10813304#2"/>
    <trip id="54" depart="540.00" from="10887584#0" to="733746796#5"/>
    <trip id="55" depart="550.00" from="4390984#0" to="-28483788#1"/>
    <trip id="56" depart="560.00" from="118591862#1" to="-24965011#18"/>
    <trip id="57" depart="570.00" from="5012831#2" to="4330807#2"/>
    <trip id="58" depart="580.00" from="-33095677#7" to="20192640#5"/>
    <trip id="59" depart="590.00" from="158806783#1" to="-217420857#1"/>
    <trip id="60" depart="600.00" from="28458622#0" to="14034604#22"/>
    <trip id="61" depart="610.00" from="28498134#6" to="136836672#2"/>
    <trip id="62" depart="620.00" from="-1007388304#5" to="-4330720#4"/>
    <trip id="63" depart="630.00" from="-108903078#0" to="552885496#0"/>
    <trip id="64" depart="640.00" from="4421005#8" to="34254666#3"/>
    <trip id="65" depart="650.00" from="-34597288#1" to="-1242336660#0"/>
    <trip id="66" depart="660.00" from="4416157#3" to="67575479#9"/>
    <trip id="67" depart="670.00" from="-14176935#4" to="1162040535"/>
    <trip id="68" depart="680.00" from="-134815693#5" to="28458627#0"/>
    <trip id="69" depart="690.00" from="28459380#7" to="-15801459#8"/>
    <trip id="70" depart="700.00" from="11412527#1" to="14179413#15"/>
    <trip id="71" depart="710.00" from="-28475131#3" to="4330810#3"/>
    <trip id="72" depart="720.00" from="1022934232" to="-27094578#10"/>
    <trip id="73" depart="730.00" from="13900135#10" to="27547988#7"/>
    <trip id="74" depart="740.00" from="-26707142#1" to="-390145062#4"/>
    <trip id="75" depart="750.00" from="971635768#3" to="22398877#3"/>
    <trip id="76" depart="760.00" from="10581217#4" to="1276117605#1"/>
    <trip id="77" depart="770.00" from="-15455565#4" to="-27549124#0"/>
    <trip id="78" depart="780.00" from="-44953495#1" to="15455565#1"/>
    <trip id="79" depart="790.00" from="-27605634#6" to="-27425894#6"/>
    <trip id="80" depart="800.00" from="-13551494#5" to="18470947#2"/>
    <trip id="81" depart="810.00" from="-27547989#1" to="4817820#2"/>
    <trip id="82" depart="820.00" from="4264302#0" to="-138554274#2"/>
    <trip id="83" depart="830.00" from="-28181723#1" to="24722395#9"/>
    <trip id="84" depart="840.00" from="-26998976#2" to="-164679456#0"/>
    <trip id="85" depart="850.00" from="587938939#0" to="15082852#2"/>
    <trip id="86" depart="860.00" from="11392615#1" to="28702766#13"/>
    <trip id="87" depart="870.00" from="30429750#2" to="-26604090#15"/>
    <trip id="88" depart="880.00" from="-144175117#10" to="10581219#1"/>
    <trip id="89" depart="890.00" from="1022934266" to="11403654#4"/>
    <trip id="90" depart="900.00" from="27473359#1" to="24759994#1"/>
    <trip id="91" depart="910.00" from="881304319#12" to="-144274816#1"/>
    <trip id="92" depart="920.00" from="-82012174#5" to="-466294452#0"/>
    <trip id="93" depart="930.00" from="4272215" to="-28458607#50"/>
    <trip id="94" depart="940.00" from="-25674964#2" to="1093109146#1"/>
    <trip id="95" depart="950.00" from="10221444#5" to="-298295793#3"/>
    <trip id="96" depart="960.00" from="-28458428#10" to="53284420#1"/>
    <trip id="97" depart="970.00" from="1081343497#3" to="4276191#1"/>
    <trip id="98" depart="980.00" from="14174950#6" to="-1199655478"/>
    <trip id="99" depart="990.00" from="995312888#1" to="35082145#2"/>
    <trip id="100" depart="1000.00" from="8079713#1" to="551303619"/>
    <trip id="101" depart="1010.00" from="38876877#2" to="-24722139#11"/>
    <trip id="102" depart="1020.00" from="115649724" to="-27213020#9"/>
    <trip id="103" depart="1030.00" from="-81295409#4" to="-1243154551#0"/>
    <trip id="104" depart="1040.00" from="-589705754#0" to="89869128#1"/>
    <trip id="105" depart="1050.00" from="-28475131#6" to="28702689#2"/>
    <trip id="106" depart="1060.00" from="1090884536" to="10274025#18"/>
    <trip id="107" depart="1070.00" from="77670858#0" to="973095752#0"/>
    <trip id="108" depart="1080.00" from="14178283#1" to="27263100#1"/>
    <trip id="109" depart="1090.00" from="-207704669#1" to="-337072049#2"/>
    <trip id="110" depart="1100.00" from="8079179#7" to="15289316#2"/>
    <trip id="111" depart="1110.00" from="139883198#1" to="28311968#2"/>
    <trip id="112" depart="1120.00" from="-1241323702#2" to="15290784#2"/>
    <trip id="113" depart="1130.00" from="1195284417#0" to="400413916"/>
    <trip id="114" depart="1140.00" from="-22323474#0" to="80240654#1"/>
    <trip id="115" depart="1150.00" from="-14034672#2" to="-25674899#5"/>
    <trip id="116" depart="1160.00" from="15457211#5" to="24759998#9"/>
    <trip id="117" depart="1170.00" from="-28131426#3" to="-15461128#1"/>
    <trip id="118" depart="1180.00" from="4624736#2" to="-28458535#0"/>
    <trip id="119" depart="1190.00" from="15457111#1" to="16680429#3"/>
    <trip id="120" depart="1200.00" from="1003934609#5" to="15290736#12"/>
    <trip id="121" depart="1210.00" from="1263258787" to="572692259"/>
    <trip id="122" depart="1220.00" from="-26718030#2" to="27213020#10"/>
    <trip id="123" depart="1230.00" from="-28203070#0" to="-82080248#0"/>
    <trip id="124" depart="1240.00" from="24722393#1" to="-34254667#1"/>
    <trip id="125" depart="1250.00" from="-38357717#3" to="28458349#1"/>
    <trip id="126" depart="1260.00" from="-13879908#7" to="1125642346#4"/>
    <trip id="127" depart="1270.00" from="9864218#3" to="977074550#3"/>
    <trip id="128" depart="1280.00" from="-13900135#3" to="-27141417#2"/>
    <trip id="129" depart="1290.00" from="-28475131#6" to="566212953#2"/>
    <trip id="130" depart="1300.00" from="4495048#3" to="4495047#6"/>
    <trip id="131" depart="1310.00" from="-53227093#4" to="-229224011#0"/>
    <trip id="132" depart="1320.00" from="34255584#2" to="26718051#1"/>
    <trip id="133" depart="1330.00" from="163643977#0" to="91220512#0"/>
    <trip id="134" depart="1340.00" from="223805264#3" to="-10581217#6"/>
    <trip id="135" depart="1350.00" from="320366360#3" to="-34254664#6"/>
    <trip id="136" depart="1360.00" from="24481159#4" to="598985651#1"/>
    <trip id="137" depart="1370.00" from="-159746410#1" to="-15291326#3"/>
    <trip id="138" depart="1380.00" from="-15281558#2" to="14334150#11"/>
    <trip id="139" depart="1390.00" from="-28498329#6" to="15951322#9"/>
    <trip id="140" depart="1400.00" from="27017673#12" to="-26745002#5"/>
    <trip id="141" depart="1410.00" from="180806729#4" to="-28497957#13"/>
    <trip id="142" depart="1420.00" from="1157907986#4" to="4817820#1"/>
    <trip id="143" depart="1430.00" from="38328175#1" to="-14334194#2"/>
    <trip id="144" depart="1440.00" from="1022934266" to="-29287722#6"/>
    <trip id="145" depart="1450.00" from="-10274143#1" to="28475207#4"/>
    <trip id="146" depart="1460.00" from="191095240#1" to="-28475350#4"/>
    <trip id="147" depart="1470.00" from="28146146#1" to="14198102#4"/>
    <trip id="148" depart="1480.00" from="1023578611" to="-107136351#5"/>
    <trip id="149" depart="1490.00" from="-14032595#1" to="45421665#0"/>
    <trip id="150" depart="1500.00" from="4770467#3" to="14176332#4"/>
    <trip id="151" depart="1510.00" from="34424558#7" to="15290180#2"/>
    <trip id="152" depart="1520.00" from="-183355045#1" to="-15801430#6"/>
    <trip id="153" depart="1530.00" from="-349492868" to="4769137#1"/>
    <trip id="154" depart="1540.00" from="292380338#1" to="4275941#0"/>
    <trip id="155" depart="1550.00" from="4767571#1" to="-269132356#0"/>
    <trip id="156" depart="1560.00" from="-28458375#3" to="-150813800#1"/>
    <trip id="157" depart="1570.00" from="28498329#9" to="45480059#3"/>
    <trip id="158" depart="1580.00" from="-842377048#5" to="16681458#1"/>
    <trip id="159" depart="1590.00" from="-206005928#0" to="553625025#3"/>
    <trip id="160" depart="1600.00" from="4290498#7" to="82012174#4"/>
    <trip id="161" depart="1610.00" from="308294800#1" to="45019930#2"/>
    <trip id="162" depart="1620.00" from="-1125196654#1" to="28131360#3"/>
    <trip id="163" depart="1630.00" from="-4331034#2" to="5554823#1"/>
    <trip id="164" depart="1640.00" from="296994557#1" to="4303215#10"/>
    <trip id="165" depart="1650.00" from="308294800#1" to="-28498329#8"/>
    <trip id="166" depart="1660.00" from="28702766#6" to="-15288019#2"/>
    <trip id="167" depart="1670.00" from="4330807#6" to="4270951#2"/>
    <trip id="168" depart="1680.00" from="-27263417#1" to="32453965#4"/>
    <trip id="169" depart="1690.00" from="1117701522" to="-35267042#6"/>
    <trip id="170" depart="1700.00" from="292189140#2" to="-28100613#9"/>
    <trip id="171" depart="1710.00" from="-1122584170#1" to="-26675668#16"/>
    <trip id="172" depart="1720.00" from="-4303349#7" to="4303215#9"/>
    <trip id="173" depart="1730.00" from="806960336#2" to="-30045178"/>
    <trip id="174" depart="1740.00" from="20010879#0" to="-881304319#0"/>
    <trip id="175" depart="1750.00" from="8384772#4" to="14032859#1"/>
    <trip id="176" depart="1760.00" from="598494927#4" to="-15291326#1"/>
    <trip id="177" depart="1770.00" from="8079717#6" to="-24965011#16"/>
    <trip id="178" depart="1780.00" from="80513421#2" to="-28498134#9"/>
    <trip id="179" depart="1790.00" from="-15282170#0" to="107919121#4"/>
    <trip id="180" depart="1800.00" from="27449924#2" to="-39407122#6"/>
    <trip id="181" depart="1810.00" from="15801430#3" to="1242592563"/>
    <trip id="182" depart="1820.00" from="-67575479#0" to="15288019#2"/>
    <trip id="183" depart="1830.00" from="-28458607#58" to="26745153#8"/>
    <trip id="184" depart="1840.00" from="-10274020#1" to="546905175"/>
    <trip id="185" depart="1850.00" from="13857742#0" to="27263175"/>
    <trip id="186" depart="1860.00" from="28165206#1" to="24759077#9"/>
    <trip id="187" depart="1870.00" from="-5053030#2" to="-13551494#3"/>
    <trip id="188" depart="1880.00" from="245637667#0" to="-4495047#7"/>
    <trip id="189" depart="1890.00" from="-37106374#2" to="391218573#1"/>
    <trip id="190" depart="1900.00" from="27141419#0" to="-34255584#2"/>
    <trip id="191" depart="1910.00" from="-351683428#1" to="-977074550#5"/>
    <trip id="192" depart="1920.00" from="-82012174#1" to="-331890518#0"/>
    <trip id="193" depart="1930.00" from="-15783594#1" to="10274020#1"/>
    <trip id="194" depart="1940.00" from="60451894#18" to="24965011#5"/>
    <trip id="195" depart="1950.00" from="4770140#1" to="166400504#0"/>
    <trip id="196" depart="1960.00" from="-33129780#3" to="14177629#1"/>
    <trip id="197" depart="1970.00" from="-1007388304#2" to="-31855248#16"/>
    <trip id="198" depart="1980.00" from="10274024#15" to="15289865#4"/>
    <trip id="199" depart="1990.00" from="22398877#4" to="11392370#8"/>
    <trip id="200" depart="2000.00" from="1080198752#0" to="-27213020#8"/>
    <trip id="201" depart="2010.00" from="11392800#4" to="4770130#2"/>
    <trip id="202" depart="2020.00" from="29223285" to="-24722395#16"/>
    <trip id="203" depart="2030.00" from="-14176435#2" to="1259387615#0"/>
    <trip id="204" depart="2040.00" from="175697737#0" to="-4550469#1"/>
    <trip id="205" depart="2050.00" from="323640094#0" to="28455604#1"/>
    <trip id="206" depart="2060.00" from="24722395#3" to="-27549123"/>
    <trip id="207" depart="2070.00" from="-26675669#6" to="-1125196663#3"/>
    <trip id="208" depart="2080.00" from="-28351888#1" to="115139121#2"/>
    <trip id="209" depart="2090.00" from="391218574" to="-13900247#4"/>
    <trip id="210" depart="2100.00" from="-958168820#2" to="180860851#1"/>
    <trip id="211" depart="2110.00" from="-26604090#0" to="26675669#1"/>
    <trip id="212" depart="2120.00" from="116352995#3" to="-28458428#0"/>
    <trip id="213" depart="2130.00" from="22661335#2" to="-1030929334#0"/>
    <trip id="214" depart="2140.00" from="28312361#2" to="28475131#6"/>
    <trip id="215" depart="2150.00" from="-15281530#2" to="10274146#2"/>
    <trip id="216" depart="2160.00" from="-24759077#5" to="77775671#3"/>
    <trip id="217" depart="2170.00" from="1242336660#0" to="-1198892549#4"/>
    <trip id="218" depart="2180.00" from="-28458367#7" to="391218578#4"/>
    <trip id="219" depart="2190.00" from="1096125935" to="298295793#0"/>
    <trip id="220" depart="2200.00" from="24721989#0" to="924509043#1"/>
    <trip id="221" depart="2210.00" from="15461128#1" to="711498757#0"/>
    <trip id="222" depart="2220.00" from="46786447#2" to="165809812"/>
    <trip id="223" depart="2230.00" from="27141415#1" to="122412486#2"/>
    <trip id="224" depart="2240.00" from="34001490#4" to="14177629#0"/>
    <trip id="225" depart="2250.00" from="4766432#2" to="28236032#1"/>
    <trip id="226" depart="2260.00" from="11412271#3" to="-28475088#5"/>
    <trip id="227" depart="2270.00" from="-28458349#12" to="20167442#18"/>
    <trip id="228" depart="2280.00" from="28459380#5" to="1302697258#0"/>
    <trip id="229" depart="2290.00" from="166913359#3" to="-290061467#0"/>
    <trip id="230" depart="2300.00" from="-14034431#2" to="-314394374#4"/>
    <trip id="231" depart="2310.00" from="-28498202#9" to="-4275969#1"/>
    <trip id="232" depart="2320.00" from="13900135#8" to="-16680894#1"/>
    <trip id="233" depart="2330.00" from="-28038337#0" to="26675660#6"/>
    <trip id="234" depart="2340.00" from="26718033#0" to="-1309873048#2"/>
    <trip id="235" depart="2350.00" from="-88489701" to="141250627#9"/>
    <trip id="236" depart="2360.00" from="-977074550#3" to="-26745835#0"/>
    <trip id="237" depart="2370.00" from="1011281944#0" to="477339971#5"/>
    <trip id="238" depart="2380.00" from="15288404#0" to="26675668#23"/>
    <trip id="239" depart="2390.00" from="40776508#4" to="28474544#4"/>
    <trip id="240" depart="2400.00" from="-598985651#0" to="-103574800#8"/>
    <trip id="241" depart="2410.00" from="-4767611#4" to="28458367#33"/>
    <trip id="242" depart="2420.00" from="39469986#1" to="73188457#0"/>
    <trip id="243" depart="2430.00" from="1003934609#1" to="28311802#1"/>
    <trip id="244" depart="2440.00" from="14034604#15" to="158587512#1"/>
    <trip id="245" depart="2450.00" from="-27263190#3" to="-27276943#2"/>
    <trip id="246" depart="2460.00" from="1044567422" to="-1136951376#0"/>
    <trip id="247" depart="2470.00" from="-4495046#6" to="25051037#5"/>
    <trip id="248" depart="2480.00" from="-833678876#4" to="-24721988#1"/>
    <trip id="249" depart="2490.00" from="1126667214" to="-15801439#1"/>
    <trip id="250" depart="2500.00" from="16678657#8" to="-112897106#1"/>
    <trip id="251" depart="2510.00" from="-7841900#1" to="145067901"/>
    <trip id="252" depart="2520.00" from="-1126109435#0" to="207704669#3"/>
    <trip id="253" depart="2530.00" from="-165174572#4" to="113039876#1"/>
    <trip id="254" depart="2540.00" from="-1196004391#1" to="-67575484#4"/>
    <trip id="255" depart="2550.00" from="-26814621#1" to="-4416115#16"/>
    <trip id="256" depart="2560.00" from="28458607#50" to="-67575484#4"/>
    <trip id="257" depart="2570.00" from="28412126#0" to="34254667#5"/>
    <trip id="258" depart="2580.00" from="-28458563#2" to="-14175132#9"/>
    <trip id="259" depart="2590.00" from="-10888513#0" to="14034604#23"/>
    <trip id="260" depart="2600.00" from="99536753#2" to="-4835513#4"/>
    <trip id="261" depart="2610.00" from="220168919#1" to="28565832#1"/>
    <trip id="262" depart="2620.00" from="22278130#1" to="28458375#2"/>
    <trip id="263" depart="2630.00" from="699192571#3" to="-26718004#6"/>
    <trip id="264" depart="2640.00" from="-1093082179" to="-21615164#10"/>
    <trip id="265" depart="2650.00" from="-157783927#2" to="24759070#4"/>
    <trip id="266" depart="2660.00" from="144175097#15" to="-27263399"/>
    <trip id="267" depart="2670.00" from="26675668#36" to="28474921#11"/>
    <trip id="268" depart="2680.00" from="-24721242#6" to="163665999#0"/>
    <trip id="269" depart="2690.00" from="28307942#1" to="-15290736#11"/>
    <trip id="270" depart="2700.00" from="32602745#1" to="806863897"/>
    <trip id="271" depart="2710.00" from="-15282015#0" to="-1125642346#5"/>
    <trip id="272" depart="2720.00" from="-35317405#6" to="24965011#5"/>
    <trip id="273" depart="2730.00" from="77775671#2" to="-833678874#4"/>
    <trip id="274" depart="2740.00" from="26833631#5" to="-14033536#4"/>
    <trip id="275" depart="2750.00" from="25677062#5" to="17540508#3"/>
    <trip id="276" depart="2760.00" from="-146668057#3" to="28475350#7"/>
    <trip id="277" depart="2770.00" from="391218590#0" to="15800869#3"/>
    <trip id="278" depart="2780.00" from="-15455565#5" to="881304319#11"/>
    <trip id="279" depart="2790.00" from="28552057" to="-4770140#6"/>
    <trip id="280" depart="2800.00" from="10274020#6" to="-589705733#4"/>
    <trip id="281" depart="2810.00" from="1200328799" to="-4730735#7"/>
    <trip id="282" depart="2820.00" from="391218571#1" to="33095677#4"/>
    <trip id="283" depart="2830.00" from="-15084368#1" to="80240654#1"/>
    <trip id="284" depart="2840.00" from="183355045#1" to="34001490#4"/>
    <trip id="285" depart="2850.00" from="26718051#0" to="1081343497#3"/>
    <trip id="286" depart="2860.00" from="27549124#3" to="806863927#1"/>
    <trip id="287" depart="2870.00" from="-28497957#25" to="308294792#0"/>
    <trip id="288" depart="2880.00" from="138554273#1" to="1159599597"/>
    <trip id="289" depart="2890.00" from="10436664#1" to="27605634#2"/>
    <trip id="290" depart="2900.00" from="-28475403#1" to="39408744"/>
    <trip id="291" depart="2910.00" from="340808751#2" to="-14178332#2"/>
    <trip id="292" depart="2920.00" from="4495168#0" to="-28458375#5"/>
    <trip id="293" depart="2930.00" from="1125200902#1" to="165238886#2"/>
    <trip id="294" depart="2940.00" from="-589705754#0" to="-1135684238"/>
    <trip id="295" depart="2950.00" from="39153666#4" to="-25051283#14"/>
    <trip id="296" depart="2960.00" from="-26833619#1" to="295347511#2"/>
    <trip id="297" depart="2970.00" from="-45421665#1" to="4495073#1"/>
    <trip id="298" depart="2980.00" from="26696447#1" to="-29287722#12"/>
    <trip id="299" depart="2990.00" from="-1078986680" to="67628509#2"/>
    <trip id="300" depart="3000.00" from="-14176935#2" to="27263272#2"/>
    <trip id="301" depart="3010.00" from="1157907986#5" to="28458607#3"/>
    <trip id="302" depart="3020.00" from="25677062#3" to="222484828#7"/>
    <trip id="303" depart="3030.00" from="1159599802#1" to="292189140#2"/>
    <trip id="304" depart="3040.00" from="-14334189#1" to="-27547902#0"/>
    <trip id="305" depart="3050.00" from="26103359#6" to="-35537863#4"/>
    <trip id="306" depart="3060.00" from="15282396#0" to="1147847925"/>
    <trip id="307" depart="3070.00" from="132426736#4" to="1028141741"/>
    <trip id="308" depart="3080.00" from="28236031#0" to="-4495049#5"/>
    <trip id="309" depart="3090.00" from="26707142#0" to="-28702766#9"/>
    <trip id="310" depart="3100.00" from="-28458518#4" to="-15520986"/>
    <trip id="311" depart="3110.00" from="-26103359#8" to="-15457555#0"/>
    <trip id="312" depart="3120.00" from="13515103#18" to="28459337#1"/>
    <trip id="313" depart="3130.00" from="-25051134#14" to="-27263190#3"/>
    <trip id="314" depart="3140.00" from="115507325#2" to="27425891#5"/>
    <trip id="315" depart="3150.00" from="82012174#5" to="133263668#2"/>
    <trip id="316" depart="3160.00" from="-293566387#2" to="-146668057#4"/>
    <trip id="317" depart="3170.00" from="-263932786#6" to="-28100613#4"/>
    <trip id="318" depart="3180.00" from="-24759995#6" to="-1081728827"/>
    <trip id="319" depart="3190.00" from="134221897#1" to="-28907476#0"/>
    <trip id="320" depart="3200.00" from="81295409#2" to="14334150#15"/>
    <trip id="321" depart="3210.00" from="26675660#5" to="-15800716#2"/>
    <trip id="322" depart="3220.00" from="4303613#7" to="117679603#5"/>
    <trip id="323" depart="3230.00" from="4330808#18" to="15281643#5"/>
    <trip id="324" depart="3240.00" from="1131115808#4" to="1081735371#2"/>
    <trip id="325" depart="3250.00" from="-25051125#13" to="-1213420944#1"/>
    <trip id="326" depart="3260.00" from="60690096#3" to="115649677#2"/>
    <trip id="327" depart="3270.00" from="32781216#3" to="-89100882#4"/>
    <trip id="328" depart="3280.00" from="-13900253#5" to="180850711#1"/>
    <trip id="329" depart="3290.00" from="-122412460#10" to="-20167442#3"/>
    <trip id="330" depart="3300.00" from="143690243#1" to="-35200889#5"/>
    <trip id="331" depart="3310.00" from="958168821#1" to="-15455565#3"/>
    <trip id="332" depart="3320.00" from="28459337#11" to="163450561#8"/>
    <trip id="333" depart="3330.00" from="288888536#3" to="-27841832#0"/>
    <trip id="334" depart="3340.00" from="1259387615#1" to="1104072122#0"/>
    <trip id="335" depart="3350.00" from="1081330623#1" to="4272205"/>
    <trip id="336" depart="3360.00" from="9404191#10" to="-35317181#0"/>
    <trip id="337" depart="3370.00" from="166400507#0" to="164760277#1"/>
    <trip id="338" depart="3380.00" from="28131426#1" to="67575485#1"/>
    <trip id="339" depart="3390.00" from="-26745002#5" to="-27017673#10"/>
    <trip id="340" depart="3400.00" from="237325901#0" to="-22718969#9"/>
    <trip id="341" depart="3410.00" from="-24722395#21" to="-14033328#7"/>
    <trip id="342" depart="3420.00" from="-10274025#11" to="1104072122#0"/>
    <trip id="343" depart="3430.00" from="15455344#2" to="-32955998#1"/>
    <trip id="344" depart="3440.00" from="-28100605#4" to="26745032#8"/>
    <trip id="345" depart="3450.00" from="26717431#0" to="1121229172#1"/>
    <trip id="346" depart="3460.00" from="25397699" to="53577901#6"/>
    <trip id="347" depart="3470.00" from="28702772#2" to="169770396#1"/>
    <trip id="348" depart="3480.00" from="24382790#3" to="56651915#0"/>
    <trip id="349" depart="3490.00" from="1022939981" to="14175749#6"/>
    <trip id="350" depart="3500.00" from="207704669#3" to="48818709#9"/>
    <trip id="351" depart="3510.00" from="33129460#6" to="-13879908#5"/>
    <trip id="352" depart="3520.00" from="-24481238#13" to="-367556794#5"/>
    <trip id="353" depart="3530.00" from="28308517#16" to="14708427#1"/>
    <trip id="354" depart="3540.00" from="-306394887#11" to="-157783938#5"/>
    <trip id="355" depart="3550.00" from="25674747#1" to="26717689#1"/>
    <trip id="356" depart="3560.00" from="620154150" to="1207994438#1"/>
    <trip id="357" depart="3570.00" from="116260362#1" to="-141250627#3"/>
    <trip id="358" depart="3580.00" from="-1157681667#0" to="10598037#5"/>
    <trip id="359" depart="3590.00" from="-40776507" to="-28458627#6"/>
</routes>
